* NGSPICE file created from core.ext - technology: sky130A

* Black-box entry subcircuit for sky130_fd_sc_hd__decap_6 abstract view
.subckt sky130_fd_sc_hd__decap_6 VGND VNB VPB VPWR
.ends

* Black-box entry subcircuit for sky130_fd_sc_hd__and2_1 abstract view
.subckt sky130_fd_sc_hd__and2_1 A B VGND VNB VPB VPWR X
.ends

* Black-box entry subcircuit for sky130_ef_sc_hd__decap_12 abstract view
.subckt sky130_ef_sc_hd__decap_12 VGND VNB VPB VPWR
.ends

* Black-box entry subcircuit for sky130_fd_sc_hd__and2b_1 abstract view
.subckt sky130_fd_sc_hd__and2b_1 A_N B VGND VNB VPB VPWR X
.ends

* Black-box entry subcircuit for sky130_fd_sc_hd__fill_2 abstract view
.subckt sky130_fd_sc_hd__fill_2 VGND VNB VPB VPWR
.ends

* Black-box entry subcircuit for sky130_fd_sc_hd__mux2_2 abstract view
.subckt sky130_fd_sc_hd__mux2_2 A0 A1 S VGND VNB VPB VPWR X
.ends

* Black-box entry subcircuit for sky130_fd_sc_hd__fill_1 abstract view
.subckt sky130_fd_sc_hd__fill_1 VGND VNB VPB VPWR
.ends

* Black-box entry subcircuit for sky130_fd_sc_hd__a211o_1 abstract view
.subckt sky130_fd_sc_hd__a211o_1 A1 A2 B1 C1 VGND VNB VPB VPWR X
.ends

* Black-box entry subcircuit for sky130_fd_sc_hd__clkbuf_1 abstract view
.subckt sky130_fd_sc_hd__clkbuf_1 A VGND VNB VPB VPWR X
.ends

* Black-box entry subcircuit for sky130_fd_sc_hd__decap_4 abstract view
.subckt sky130_fd_sc_hd__decap_4 VGND VNB VPB VPWR
.ends

* Black-box entry subcircuit for sky130_fd_sc_hd__decap_3 abstract view
.subckt sky130_fd_sc_hd__decap_3 VGND VNB VPB VPWR
.ends

* Black-box entry subcircuit for sky130_fd_sc_hd__tapvpwrvgnd_1 abstract view
.subckt sky130_fd_sc_hd__tapvpwrvgnd_1 VGND VPWR
.ends

* Black-box entry subcircuit for sky130_fd_sc_hd__decap_8 abstract view
.subckt sky130_fd_sc_hd__decap_8 VGND VNB VPB VPWR
.ends

* Black-box entry subcircuit for sky130_fd_sc_hd__dfrtp_1 abstract view
.subckt sky130_fd_sc_hd__dfrtp_1 CLK D RESET_B VGND VNB VPB VPWR Q
.ends

* Black-box entry subcircuit for sky130_fd_sc_hd__nor2_1 abstract view
.subckt sky130_fd_sc_hd__nor2_1 A B VGND VNB VPB VPWR Y
.ends

* Black-box entry subcircuit for sky130_fd_sc_hd__dfrtp_4 abstract view
.subckt sky130_fd_sc_hd__dfrtp_4 CLK D RESET_B VGND VNB VPB VPWR Q
.ends

* Black-box entry subcircuit for sky130_fd_sc_hd__o32a_1 abstract view
.subckt sky130_fd_sc_hd__o32a_1 A1 A2 A3 B1 B2 VGND VNB VPB VPWR X
.ends

* Black-box entry subcircuit for sky130_fd_sc_hd__nand2_1 abstract view
.subckt sky130_fd_sc_hd__nand2_1 A B VGND VNB VPB VPWR Y
.ends

* Black-box entry subcircuit for sky130_fd_sc_hd__or4_1 abstract view
.subckt sky130_fd_sc_hd__or4_1 A B C D VGND VNB VPB VPWR X
.ends

* Black-box entry subcircuit for sky130_fd_sc_hd__a21o_1 abstract view
.subckt sky130_fd_sc_hd__a21o_1 A1 A2 B1 VGND VNB VPB VPWR X
.ends

* Black-box entry subcircuit for sky130_fd_sc_hd__a21oi_4 abstract view
.subckt sky130_fd_sc_hd__a21oi_4 A1 A2 B1 VGND VNB VPB VPWR Y
.ends

* Black-box entry subcircuit for sky130_fd_sc_hd__and3_1 abstract view
.subckt sky130_fd_sc_hd__and3_1 A B C VGND VNB VPB VPWR X
.ends

* Black-box entry subcircuit for sky130_fd_sc_hd__mux2_1 abstract view
.subckt sky130_fd_sc_hd__mux2_1 A0 A1 S VGND VNB VPB VPWR X
.ends

* Black-box entry subcircuit for sky130_fd_sc_hd__a31oi_1 abstract view
.subckt sky130_fd_sc_hd__a31oi_1 A1 A2 A3 B1 VGND VNB VPB VPWR Y
.ends

* Black-box entry subcircuit for sky130_fd_sc_hd__o31ai_4 abstract view
.subckt sky130_fd_sc_hd__o31ai_4 A1 A2 A3 B1 VGND VNB VPB VPWR Y
.ends

* Black-box entry subcircuit for sky130_fd_sc_hd__or4b_1 abstract view
.subckt sky130_fd_sc_hd__or4b_1 A B C D_N VGND VNB VPB VPWR X
.ends

* Black-box entry subcircuit for sky130_fd_sc_hd__buf_12 abstract view
.subckt sky130_fd_sc_hd__buf_12 A VGND VNB VPB VPWR X
.ends

* Black-box entry subcircuit for sky130_fd_sc_hd__or3_1 abstract view
.subckt sky130_fd_sc_hd__or3_1 A B C VGND VNB VPB VPWR X
.ends

* Black-box entry subcircuit for sky130_fd_sc_hd__a21oi_1 abstract view
.subckt sky130_fd_sc_hd__a21oi_1 A1 A2 B1 VGND VNB VPB VPWR Y
.ends

* Black-box entry subcircuit for sky130_fd_sc_hd__a221o_1 abstract view
.subckt sky130_fd_sc_hd__a221o_1 A1 A2 B1 B2 C1 VGND VNB VPB VPWR X
.ends

* Black-box entry subcircuit for sky130_fd_sc_hd__or2b_1 abstract view
.subckt sky130_fd_sc_hd__or2b_1 A B_N VGND VNB VPB VPWR X
.ends

* Black-box entry subcircuit for sky130_fd_sc_hd__buf_2 abstract view
.subckt sky130_fd_sc_hd__buf_2 A VGND VNB VPB VPWR X
.ends

* Black-box entry subcircuit for sky130_fd_sc_hd__dfxtp_1 abstract view
.subckt sky130_fd_sc_hd__dfxtp_1 CLK D VGND VNB VPB VPWR Q
.ends

* Black-box entry subcircuit for sky130_fd_sc_hd__and4_1 abstract view
.subckt sky130_fd_sc_hd__and4_1 A B C D VGND VNB VPB VPWR X
.ends

* Black-box entry subcircuit for sky130_fd_sc_hd__nor2_2 abstract view
.subckt sky130_fd_sc_hd__nor2_2 A B VGND VNB VPB VPWR Y
.ends

* Black-box entry subcircuit for sky130_fd_sc_hd__xnor2_2 abstract view
.subckt sky130_fd_sc_hd__xnor2_2 A B VGND VNB VPB VPWR Y
.ends

* Black-box entry subcircuit for sky130_fd_sc_hd__clkdlybuf4s25_1 abstract view
.subckt sky130_fd_sc_hd__clkdlybuf4s25_1 A VGND VNB VPB VPWR X
.ends

* Black-box entry subcircuit for sky130_fd_sc_hd__conb_1 abstract view
.subckt sky130_fd_sc_hd__conb_1 VGND VNB VPB VPWR HI LO
.ends

* Black-box entry subcircuit for sky130_fd_sc_hd__a2bb2o_1 abstract view
.subckt sky130_fd_sc_hd__a2bb2o_1 A1_N A2_N B1 B2 VGND VNB VPB VPWR X
.ends

* Black-box entry subcircuit for sky130_fd_sc_hd__o211a_1 abstract view
.subckt sky130_fd_sc_hd__o211a_1 A1 A2 B1 C1 VGND VNB VPB VPWR X
.ends

* Black-box entry subcircuit for sky130_fd_sc_hd__o31a_1 abstract view
.subckt sky130_fd_sc_hd__o31a_1 A1 A2 A3 B1 VGND VNB VPB VPWR X
.ends

* Black-box entry subcircuit for sky130_fd_sc_hd__o31a_2 abstract view
.subckt sky130_fd_sc_hd__o31a_2 A1 A2 A3 B1 VGND VNB VPB VPWR X
.ends

* Black-box entry subcircuit for sky130_fd_sc_hd__or2_1 abstract view
.subckt sky130_fd_sc_hd__or2_1 A B VGND VNB VPB VPWR X
.ends

* Black-box entry subcircuit for sky130_fd_sc_hd__buf_8 abstract view
.subckt sky130_fd_sc_hd__buf_8 A VGND VNB VPB VPWR X
.ends

* Black-box entry subcircuit for sky130_fd_sc_hd__inv_1 abstract view
.subckt sky130_fd_sc_hd__inv_1 A VGND VNB VPB VPWR Y
.ends

* Black-box entry subcircuit for sky130_fd_sc_hd__o2111a_1 abstract view
.subckt sky130_fd_sc_hd__o2111a_1 A1 A2 B1 C1 D1 VGND VNB VPB VPWR X
.ends

* Black-box entry subcircuit for sky130_fd_sc_hd__inv_2 abstract view
.subckt sky130_fd_sc_hd__inv_2 A VGND VNB VPB VPWR Y
.ends

* Black-box entry subcircuit for sky130_fd_sc_hd__nand2_4 abstract view
.subckt sky130_fd_sc_hd__nand2_4 A B VGND VNB VPB VPWR Y
.ends

* Black-box entry subcircuit for sky130_fd_sc_hd__o221a_1 abstract view
.subckt sky130_fd_sc_hd__o221a_1 A1 A2 B1 B2 C1 VGND VNB VPB VPWR X
.ends

* Black-box entry subcircuit for sky130_fd_sc_hd__nand3_1 abstract view
.subckt sky130_fd_sc_hd__nand3_1 A B C VGND VNB VPB VPWR Y
.ends

* Black-box entry subcircuit for sky130_fd_sc_hd__buf_4 abstract view
.subckt sky130_fd_sc_hd__buf_4 A VGND VNB VPB VPWR X
.ends

* Black-box entry subcircuit for sky130_fd_sc_hd__o22a_1 abstract view
.subckt sky130_fd_sc_hd__o22a_1 A1 A2 B1 B2 VGND VNB VPB VPWR X
.ends

* Black-box entry subcircuit for sky130_fd_sc_hd__o311a_1 abstract view
.subckt sky130_fd_sc_hd__o311a_1 A1 A2 A3 B1 C1 VGND VNB VPB VPWR X
.ends

* Black-box entry subcircuit for sky130_fd_sc_hd__a22o_1 abstract view
.subckt sky130_fd_sc_hd__a22o_1 A1 A2 B1 B2 VGND VNB VPB VPWR X
.ends

* Black-box entry subcircuit for sky130_fd_sc_hd__o21a_2 abstract view
.subckt sky130_fd_sc_hd__o21a_2 A1 A2 B1 VGND VNB VPB VPWR X
.ends

* Black-box entry subcircuit for sky130_fd_sc_hd__o22ai_2 abstract view
.subckt sky130_fd_sc_hd__o22ai_2 A1 A2 B1 B2 VGND VNB VPB VPWR Y
.ends

* Black-box entry subcircuit for sky130_fd_sc_hd__a32o_1 abstract view
.subckt sky130_fd_sc_hd__a32o_1 A1 A2 A3 B1 B2 VGND VNB VPB VPWR X
.ends

* Black-box entry subcircuit for sky130_fd_sc_hd__clkinv_2 abstract view
.subckt sky130_fd_sc_hd__clkinv_2 A VGND VNB VPB VPWR Y
.ends

* Black-box entry subcircuit for sky130_fd_sc_hd__o21ai_4 abstract view
.subckt sky130_fd_sc_hd__o21ai_4 A1 A2 B1 VGND VNB VPB VPWR Y
.ends

* Black-box entry subcircuit for sky130_fd_sc_hd__nor3_4 abstract view
.subckt sky130_fd_sc_hd__nor3_4 A B C VGND VNB VPB VPWR Y
.ends

* Black-box entry subcircuit for sky130_fd_sc_hd__nand2_2 abstract view
.subckt sky130_fd_sc_hd__nand2_2 A B VGND VNB VPB VPWR Y
.ends

* Black-box entry subcircuit for sky130_fd_sc_hd__a31o_4 abstract view
.subckt sky130_fd_sc_hd__a31o_4 A1 A2 A3 B1 VGND VNB VPB VPWR X
.ends

* Black-box entry subcircuit for sky130_fd_sc_hd__xnor2_1 abstract view
.subckt sky130_fd_sc_hd__xnor2_1 A B VGND VNB VPB VPWR Y
.ends

* Black-box entry subcircuit for sky130_fd_sc_hd__a31o_1 abstract view
.subckt sky130_fd_sc_hd__a31o_1 A1 A2 A3 B1 VGND VNB VPB VPWR X
.ends

* Black-box entry subcircuit for sky130_fd_sc_hd__clkbuf_16 abstract view
.subckt sky130_fd_sc_hd__clkbuf_16 A VGND VNB VPB VPWR X
.ends

* Black-box entry subcircuit for sky130_fd_sc_hd__or3b_1 abstract view
.subckt sky130_fd_sc_hd__or3b_1 A B C_N VGND VNB VPB VPWR X
.ends

* Black-box entry subcircuit for sky130_fd_sc_hd__o21ai_1 abstract view
.subckt sky130_fd_sc_hd__o21ai_1 A1 A2 B1 VGND VNB VPB VPWR Y
.ends

* Black-box entry subcircuit for sky130_fd_sc_hd__a2bb2o_4 abstract view
.subckt sky130_fd_sc_hd__a2bb2o_4 A1_N A2_N B1 B2 VGND VNB VPB VPWR X
.ends

* Black-box entry subcircuit for sky130_fd_sc_hd__clkbuf_4 abstract view
.subckt sky130_fd_sc_hd__clkbuf_4 A VGND VNB VPB VPWR X
.ends

* Black-box entry subcircuit for sky130_fd_sc_hd__a31o_2 abstract view
.subckt sky130_fd_sc_hd__a31o_2 A1 A2 A3 B1 VGND VNB VPB VPWR X
.ends

* Black-box entry subcircuit for sky130_fd_sc_hd__or4bb_1 abstract view
.subckt sky130_fd_sc_hd__or4bb_1 A B C_N D_N VGND VNB VPB VPWR X
.ends

* Black-box entry subcircuit for sky130_fd_sc_hd__buf_6 abstract view
.subckt sky130_fd_sc_hd__buf_6 A VGND VNB VPB VPWR X
.ends

* Black-box entry subcircuit for sky130_fd_sc_hd__nand3_4 abstract view
.subckt sky130_fd_sc_hd__nand3_4 A B C VGND VNB VPB VPWR Y
.ends

* Black-box entry subcircuit for sky130_fd_sc_hd__clkdlybuf4s50_1 abstract view
.subckt sky130_fd_sc_hd__clkdlybuf4s50_1 A VGND VNB VPB VPWR X
.ends

* Black-box entry subcircuit for sky130_fd_sc_hd__o211ai_1 abstract view
.subckt sky130_fd_sc_hd__o211ai_1 A1 A2 B1 C1 VGND VNB VPB VPWR Y
.ends

* Black-box entry subcircuit for sky130_fd_sc_hd__a21bo_1 abstract view
.subckt sky130_fd_sc_hd__a21bo_1 A1 A2 B1_N VGND VNB VPB VPWR X
.ends

* Black-box entry subcircuit for sky130_fd_sc_hd__clkbuf_2 abstract view
.subckt sky130_fd_sc_hd__clkbuf_2 A VGND VNB VPB VPWR X
.ends

* Black-box entry subcircuit for sky130_fd_sc_hd__a22oi_4 abstract view
.subckt sky130_fd_sc_hd__a22oi_4 A1 A2 B1 B2 VGND VNB VPB VPWR Y
.ends

* Black-box entry subcircuit for sky130_fd_sc_hd__xor2_1 abstract view
.subckt sky130_fd_sc_hd__xor2_1 A B VGND VNB VPB VPWR X
.ends

* Black-box entry subcircuit for sky130_fd_sc_hd__nor2b_2 abstract view
.subckt sky130_fd_sc_hd__nor2b_2 A B_N VGND VNB VPB VPWR Y
.ends

* Black-box entry subcircuit for sky130_fd_sc_hd__nor4b_4 abstract view
.subckt sky130_fd_sc_hd__nor4b_4 A B C D_N VGND VNB VPB VPWR Y
.ends

* Black-box entry subcircuit for sky130_fd_sc_hd__a211oi_1 abstract view
.subckt sky130_fd_sc_hd__a211oi_1 A1 A2 B1 C1 VGND VNB VPB VPWR Y
.ends

* Black-box entry subcircuit for sky130_fd_sc_hd__o21a_1 abstract view
.subckt sky130_fd_sc_hd__o21a_1 A1 A2 B1 VGND VNB VPB VPWR X
.ends

* Black-box entry subcircuit for sky130_fd_sc_hd__a21oi_2 abstract view
.subckt sky130_fd_sc_hd__a21oi_2 A1 A2 B1 VGND VNB VPB VPWR Y
.ends

* Black-box entry subcircuit for sky130_fd_sc_hd__o21ba_1 abstract view
.subckt sky130_fd_sc_hd__o21ba_1 A1 A2 B1_N VGND VNB VPB VPWR X
.ends

* Black-box entry subcircuit for sky130_fd_sc_hd__dfrtp_2 abstract view
.subckt sky130_fd_sc_hd__dfrtp_2 CLK D RESET_B VGND VNB VPB VPWR Q
.ends

* Black-box entry subcircuit for sky130_fd_sc_hd__a31oi_4 abstract view
.subckt sky130_fd_sc_hd__a31oi_4 A1 A2 A3 B1 VGND VNB VPB VPWR Y
.ends

* Black-box entry subcircuit for sky130_fd_sc_hd__o2bb2a_1 abstract view
.subckt sky130_fd_sc_hd__o2bb2a_1 A1_N A2_N B1 B2 VGND VNB VPB VPWR X
.ends

* Black-box entry subcircuit for sky130_fd_sc_hd__and3b_1 abstract view
.subckt sky130_fd_sc_hd__and3b_1 A_N B C VGND VNB VPB VPWR X
.ends

* Black-box entry subcircuit for sky130_fd_sc_hd__and2_2 abstract view
.subckt sky130_fd_sc_hd__and2_2 A B VGND VNB VPB VPWR X
.ends

* Black-box entry subcircuit for sky130_fd_sc_hd__a221o_4 abstract view
.subckt sky130_fd_sc_hd__a221o_4 A1 A2 B1 B2 C1 VGND VNB VPB VPWR X
.ends

* Black-box entry subcircuit for sky130_fd_sc_hd__clkinv_4 abstract view
.subckt sky130_fd_sc_hd__clkinv_4 A VGND VNB VPB VPWR Y
.ends

* Black-box entry subcircuit for sky130_fd_sc_hd__a41o_1 abstract view
.subckt sky130_fd_sc_hd__a41o_1 A1 A2 A3 A4 B1 VGND VNB VPB VPWR X
.ends

* Black-box entry subcircuit for sky130_fd_sc_hd__or2_2 abstract view
.subckt sky130_fd_sc_hd__or2_2 A B VGND VNB VPB VPWR X
.ends

* Black-box entry subcircuit for sky130_fd_sc_hd__a211o_4 abstract view
.subckt sky130_fd_sc_hd__a211o_4 A1 A2 B1 C1 VGND VNB VPB VPWR X
.ends

* Black-box entry subcircuit for sky130_fd_sc_hd__a21o_4 abstract view
.subckt sky130_fd_sc_hd__a21o_4 A1 A2 B1 VGND VNB VPB VPWR X
.ends

* Black-box entry subcircuit for sky130_fd_sc_hd__clkbuf_8 abstract view
.subckt sky130_fd_sc_hd__clkbuf_8 A VGND VNB VPB VPWR X
.ends

* Black-box entry subcircuit for sky130_fd_sc_hd__nor2_8 abstract view
.subckt sky130_fd_sc_hd__nor2_8 A B VGND VNB VPB VPWR Y
.ends

* Black-box entry subcircuit for sky130_fd_sc_hd__nor3_2 abstract view
.subckt sky130_fd_sc_hd__nor3_2 A B C VGND VNB VPB VPWR Y
.ends

* Black-box entry subcircuit for sky130_fd_sc_hd__o221ai_4 abstract view
.subckt sky130_fd_sc_hd__o221ai_4 A1 A2 B1 B2 C1 VGND VNB VPB VPWR Y
.ends

* Black-box entry subcircuit for sky130_fd_sc_hd__o21bai_1 abstract view
.subckt sky130_fd_sc_hd__o21bai_1 A1 A2 B1_N VGND VNB VPB VPWR Y
.ends

* Black-box entry subcircuit for sky130_fd_sc_hd__and4b_1 abstract view
.subckt sky130_fd_sc_hd__and4b_1 A_N B C D VGND VNB VPB VPWR X
.ends

* Black-box entry subcircuit for sky130_fd_sc_hd__or4_2 abstract view
.subckt sky130_fd_sc_hd__or4_2 A B C D VGND VNB VPB VPWR X
.ends

* Black-box entry subcircuit for sky130_fd_sc_hd__a221oi_2 abstract view
.subckt sky130_fd_sc_hd__a221oi_2 A1 A2 B1 B2 C1 VGND VNB VPB VPWR Y
.ends

* Black-box entry subcircuit for sky130_fd_sc_hd__nor2b_4 abstract view
.subckt sky130_fd_sc_hd__nor2b_4 A B_N VGND VNB VPB VPWR Y
.ends

* Black-box entry subcircuit for sky130_fd_sc_hd__a311o_1 abstract view
.subckt sky130_fd_sc_hd__a311o_1 A1 A2 A3 B1 C1 VGND VNB VPB VPWR X
.ends

* Black-box entry subcircuit for sky130_fd_sc_hd__dlymetal6s2s_1 abstract view
.subckt sky130_fd_sc_hd__dlymetal6s2s_1 A VGND VNB VPB VPWR X
.ends

* Black-box entry subcircuit for sky130_fd_sc_hd__xnor2_4 abstract view
.subckt sky130_fd_sc_hd__xnor2_4 A B VGND VNB VPB VPWR Y
.ends

* Black-box entry subcircuit for sky130_fd_sc_hd__o21a_4 abstract view
.subckt sky130_fd_sc_hd__o21a_4 A1 A2 B1 VGND VNB VPB VPWR X
.ends

* Black-box entry subcircuit for sky130_fd_sc_hd__nand4_4 abstract view
.subckt sky130_fd_sc_hd__nand4_4 A B C D VGND VNB VPB VPWR Y
.ends

* Black-box entry subcircuit for sky130_fd_sc_hd__xor2_4 abstract view
.subckt sky130_fd_sc_hd__xor2_4 A B VGND VNB VPB VPWR X
.ends

* Black-box entry subcircuit for sky130_fd_sc_hd__a311o_4 abstract view
.subckt sky130_fd_sc_hd__a311o_4 A1 A2 A3 B1 C1 VGND VNB VPB VPWR X
.ends

* Black-box entry subcircuit for sky130_fd_sc_hd__a21boi_1 abstract view
.subckt sky130_fd_sc_hd__a21boi_1 A1 A2 B1_N VGND VNB VPB VPWR Y
.ends

* Black-box entry subcircuit for sky130_fd_sc_hd__a22o_2 abstract view
.subckt sky130_fd_sc_hd__a22o_2 A1 A2 B1 B2 VGND VNB VPB VPWR X
.ends

* Black-box entry subcircuit for sky130_fd_sc_hd__nand2_8 abstract view
.subckt sky130_fd_sc_hd__nand2_8 A B VGND VNB VPB VPWR Y
.ends

* Black-box entry subcircuit for sky130_fd_sc_hd__o22ai_1 abstract view
.subckt sky130_fd_sc_hd__o22ai_1 A1 A2 B1 B2 VGND VNB VPB VPWR Y
.ends

* Black-box entry subcircuit for sky130_fd_sc_hd__and3_2 abstract view
.subckt sky130_fd_sc_hd__and3_2 A B C VGND VNB VPB VPWR X
.ends

* Black-box entry subcircuit for sky130_fd_sc_hd__o221ai_2 abstract view
.subckt sky130_fd_sc_hd__o221ai_2 A1 A2 B1 B2 C1 VGND VNB VPB VPWR Y
.ends

* Black-box entry subcircuit for sky130_fd_sc_hd__a31oi_2 abstract view
.subckt sky130_fd_sc_hd__a31oi_2 A1 A2 A3 B1 VGND VNB VPB VPWR Y
.ends

* Black-box entry subcircuit for sky130_fd_sc_hd__a221o_2 abstract view
.subckt sky130_fd_sc_hd__a221o_2 A1 A2 B1 B2 C1 VGND VNB VPB VPWR X
.ends

* Black-box entry subcircuit for sky130_fd_sc_hd__nand4_2 abstract view
.subckt sky130_fd_sc_hd__nand4_2 A B C D VGND VNB VPB VPWR Y
.ends

* Black-box entry subcircuit for sky130_fd_sc_hd__xor2_2 abstract view
.subckt sky130_fd_sc_hd__xor2_2 A B VGND VNB VPB VPWR X
.ends

* Black-box entry subcircuit for sky130_fd_sc_hd__o21ai_2 abstract view
.subckt sky130_fd_sc_hd__o21ai_2 A1 A2 B1 VGND VNB VPB VPWR Y
.ends

* Black-box entry subcircuit for sky130_fd_sc_hd__a22oi_1 abstract view
.subckt sky130_fd_sc_hd__a22oi_1 A1 A2 B1 B2 VGND VNB VPB VPWR Y
.ends

* Black-box entry subcircuit for sky130_fd_sc_hd__o31ai_2 abstract view
.subckt sky130_fd_sc_hd__o31ai_2 A1 A2 A3 B1 VGND VNB VPB VPWR Y
.ends

* Black-box entry subcircuit for sky130_fd_sc_hd__a21o_2 abstract view
.subckt sky130_fd_sc_hd__a21o_2 A1 A2 B1 VGND VNB VPB VPWR X
.ends

* Black-box entry subcircuit for sky130_fd_sc_hd__nor2_4 abstract view
.subckt sky130_fd_sc_hd__nor2_4 A B VGND VNB VPB VPWR Y
.ends

* Black-box entry subcircuit for sky130_fd_sc_hd__or4bb_2 abstract view
.subckt sky130_fd_sc_hd__or4bb_2 A B C_N D_N VGND VNB VPB VPWR X
.ends

* Black-box entry subcircuit for sky130_fd_sc_hd__nand2b_2 abstract view
.subckt sky130_fd_sc_hd__nand2b_2 A_N B VGND VNB VPB VPWR Y
.ends

* Black-box entry subcircuit for sky130_fd_sc_hd__and4_2 abstract view
.subckt sky130_fd_sc_hd__and4_2 A B C D VGND VNB VPB VPWR X
.ends

* Black-box entry subcircuit for sky130_fd_sc_hd__nand4b_1 abstract view
.subckt sky130_fd_sc_hd__nand4b_1 A_N B C D VGND VNB VPB VPWR Y
.ends

* Black-box entry subcircuit for sky130_fd_sc_hd__or4bb_4 abstract view
.subckt sky130_fd_sc_hd__or4bb_4 A B C_N D_N VGND VNB VPB VPWR X
.ends

* Black-box entry subcircuit for sky130_fd_sc_hd__o2111ai_4 abstract view
.subckt sky130_fd_sc_hd__o2111ai_4 A1 A2 B1 C1 D1 VGND VNB VPB VPWR Y
.ends

* Black-box entry subcircuit for sky130_fd_sc_hd__and3_4 abstract view
.subckt sky130_fd_sc_hd__and3_4 A B C VGND VNB VPB VPWR X
.ends

* Black-box entry subcircuit for sky130_fd_sc_hd__inv_6 abstract view
.subckt sky130_fd_sc_hd__inv_6 A VGND VNB VPB VPWR Y
.ends

* Black-box entry subcircuit for sky130_fd_sc_hd__nor4_2 abstract view
.subckt sky130_fd_sc_hd__nor4_2 A B C D VGND VNB VPB VPWR Y
.ends

* Black-box entry subcircuit for sky130_fd_sc_hd__nor3_1 abstract view
.subckt sky130_fd_sc_hd__nor3_1 A B C VGND VNB VPB VPWR Y
.ends

* Black-box entry subcircuit for sky130_fd_sc_hd__nand4_1 abstract view
.subckt sky130_fd_sc_hd__nand4_1 A B C D VGND VNB VPB VPWR Y
.ends

* Black-box entry subcircuit for sky130_fd_sc_hd__or3b_2 abstract view
.subckt sky130_fd_sc_hd__or3b_2 A B C_N VGND VNB VPB VPWR X
.ends

* Black-box entry subcircuit for sky130_fd_sc_hd__a32oi_4 abstract view
.subckt sky130_fd_sc_hd__a32oi_4 A1 A2 A3 B1 B2 VGND VNB VPB VPWR Y
.ends

* Black-box entry subcircuit for sky130_fd_sc_hd__dfxtp_2 abstract view
.subckt sky130_fd_sc_hd__dfxtp_2 CLK D VGND VNB VPB VPWR Q
.ends

* Black-box entry subcircuit for sky130_fd_sc_hd__and4bb_1 abstract view
.subckt sky130_fd_sc_hd__and4bb_1 A_N B_N C D VGND VNB VPB VPWR X
.ends

* Black-box entry subcircuit for sky130_fd_sc_hd__or3_2 abstract view
.subckt sky130_fd_sc_hd__or3_2 A B C VGND VNB VPB VPWR X
.ends

* Black-box entry subcircuit for sky130_fd_sc_hd__inv_4 abstract view
.subckt sky130_fd_sc_hd__inv_4 A VGND VNB VPB VPWR Y
.ends

* Black-box entry subcircuit for sky130_fd_sc_hd__and4bb_4 abstract view
.subckt sky130_fd_sc_hd__and4bb_4 A_N B_N C D VGND VNB VPB VPWR X
.ends

* Black-box entry subcircuit for sky130_fd_sc_hd__mux4_2 abstract view
.subckt sky130_fd_sc_hd__mux4_2 A0 A1 A2 A3 S0 S1 VGND VNB VPB VPWR X
.ends

.subckt core VGND VPWR clk_i dmem_addr_o[0] dmem_addr_o[10] dmem_addr_o[11] dmem_addr_o[12]
+ dmem_addr_o[13] dmem_addr_o[14] dmem_addr_o[15] dmem_addr_o[16] dmem_addr_o[17]
+ dmem_addr_o[18] dmem_addr_o[19] dmem_addr_o[1] dmem_addr_o[20] dmem_addr_o[21] dmem_addr_o[22]
+ dmem_addr_o[23] dmem_addr_o[24] dmem_addr_o[25] dmem_addr_o[26] dmem_addr_o[27]
+ dmem_addr_o[28] dmem_addr_o[29] dmem_addr_o[2] dmem_addr_o[30] dmem_addr_o[31] dmem_addr_o[3]
+ dmem_addr_o[4] dmem_addr_o[5] dmem_addr_o[6] dmem_addr_o[7] dmem_addr_o[8] dmem_addr_o[9]
+ dmem_be_o[0] dmem_be_o[1] dmem_be_o[2] dmem_be_o[3] dmem_gnt_i dmem_rdata_i[0] dmem_rdata_i[10]
+ dmem_rdata_i[11] dmem_rdata_i[12] dmem_rdata_i[13] dmem_rdata_i[14] dmem_rdata_i[15]
+ dmem_rdata_i[16] dmem_rdata_i[17] dmem_rdata_i[18] dmem_rdata_i[19] dmem_rdata_i[1]
+ dmem_rdata_i[20] dmem_rdata_i[21] dmem_rdata_i[22] dmem_rdata_i[23] dmem_rdata_i[24]
+ dmem_rdata_i[25] dmem_rdata_i[26] dmem_rdata_i[27] dmem_rdata_i[28] dmem_rdata_i[29]
+ dmem_rdata_i[2] dmem_rdata_i[30] dmem_rdata_i[31] dmem_rdata_i[3] dmem_rdata_i[4]
+ dmem_rdata_i[5] dmem_rdata_i[6] dmem_rdata_i[7] dmem_rdata_i[8] dmem_rdata_i[9]
+ dmem_req_o dmem_rvalid_i dmem_wdata_o[0] dmem_wdata_o[10] dmem_wdata_o[11] dmem_wdata_o[12]
+ dmem_wdata_o[13] dmem_wdata_o[14] dmem_wdata_o[15] dmem_wdata_o[16] dmem_wdata_o[17]
+ dmem_wdata_o[18] dmem_wdata_o[19] dmem_wdata_o[1] dmem_wdata_o[20] dmem_wdata_o[21]
+ dmem_wdata_o[22] dmem_wdata_o[23] dmem_wdata_o[24] dmem_wdata_o[25] dmem_wdata_o[26]
+ dmem_wdata_o[27] dmem_wdata_o[28] dmem_wdata_o[29] dmem_wdata_o[2] dmem_wdata_o[30]
+ dmem_wdata_o[31] dmem_wdata_o[3] dmem_wdata_o[4] dmem_wdata_o[5] dmem_wdata_o[6]
+ dmem_wdata_o[7] dmem_wdata_o[8] dmem_wdata_o[9] dmem_we_o imem_addr_o[0] imem_addr_o[10]
+ imem_addr_o[11] imem_addr_o[12] imem_addr_o[13] imem_addr_o[14] imem_addr_o[15]
+ imem_addr_o[16] imem_addr_o[17] imem_addr_o[18] imem_addr_o[19] imem_addr_o[1] imem_addr_o[20]
+ imem_addr_o[21] imem_addr_o[22] imem_addr_o[23] imem_addr_o[24] imem_addr_o[25]
+ imem_addr_o[26] imem_addr_o[27] imem_addr_o[28] imem_addr_o[29] imem_addr_o[2] imem_addr_o[30]
+ imem_addr_o[31] imem_addr_o[3] imem_addr_o[4] imem_addr_o[5] imem_addr_o[6] imem_addr_o[7]
+ imem_addr_o[8] imem_addr_o[9] imem_be_o[0] imem_be_o[1] imem_be_o[2] imem_be_o[3]
+ imem_gnt_i imem_rdata_i[0] imem_rdata_i[10] imem_rdata_i[11] imem_rdata_i[12] imem_rdata_i[13]
+ imem_rdata_i[14] imem_rdata_i[15] imem_rdata_i[16] imem_rdata_i[17] imem_rdata_i[18]
+ imem_rdata_i[19] imem_rdata_i[1] imem_rdata_i[20] imem_rdata_i[21] imem_rdata_i[22]
+ imem_rdata_i[23] imem_rdata_i[24] imem_rdata_i[25] imem_rdata_i[26] imem_rdata_i[27]
+ imem_rdata_i[28] imem_rdata_i[29] imem_rdata_i[2] imem_rdata_i[30] imem_rdata_i[31]
+ imem_rdata_i[3] imem_rdata_i[4] imem_rdata_i[5] imem_rdata_i[6] imem_rdata_i[7]
+ imem_rdata_i[8] imem_rdata_i[9] imem_req_o imem_rvalid_i imem_wdata_o[0] imem_wdata_o[10]
+ imem_wdata_o[11] imem_wdata_o[12] imem_wdata_o[13] imem_wdata_o[14] imem_wdata_o[15]
+ imem_wdata_o[16] imem_wdata_o[17] imem_wdata_o[18] imem_wdata_o[19] imem_wdata_o[1]
+ imem_wdata_o[20] imem_wdata_o[21] imem_wdata_o[22] imem_wdata_o[23] imem_wdata_o[24]
+ imem_wdata_o[25] imem_wdata_o[26] imem_wdata_o[27] imem_wdata_o[28] imem_wdata_o[29]
+ imem_wdata_o[2] imem_wdata_o[30] imem_wdata_o[31] imem_wdata_o[3] imem_wdata_o[4]
+ imem_wdata_o[5] imem_wdata_o[6] imem_wdata_o[7] imem_wdata_o[8] imem_wdata_o[9]
+ imem_we_o rf_port1_reg_o[0] rf_port1_reg_o[1] rf_port1_reg_o[2] rf_port1_reg_o[3]
+ rf_port1_reg_o[4] rf_port2_reg_o[0] rf_port2_reg_o[1] rf_port2_reg_o[2] rf_port2_reg_o[3]
+ rf_port2_reg_o[4] rf_rs1_i[0] rf_rs1_i[10] rf_rs1_i[11] rf_rs1_i[12] rf_rs1_i[13]
+ rf_rs1_i[14] rf_rs1_i[15] rf_rs1_i[16] rf_rs1_i[17] rf_rs1_i[18] rf_rs1_i[19] rf_rs1_i[1]
+ rf_rs1_i[20] rf_rs1_i[21] rf_rs1_i[22] rf_rs1_i[23] rf_rs1_i[24] rf_rs1_i[25] rf_rs1_i[26]
+ rf_rs1_i[27] rf_rs1_i[28] rf_rs1_i[29] rf_rs1_i[2] rf_rs1_i[30] rf_rs1_i[31] rf_rs1_i[3]
+ rf_rs1_i[4] rf_rs1_i[5] rf_rs1_i[6] rf_rs1_i[7] rf_rs1_i[8] rf_rs1_i[9] rf_rs2_i[0]
+ rf_rs2_i[10] rf_rs2_i[11] rf_rs2_i[12] rf_rs2_i[13] rf_rs2_i[14] rf_rs2_i[15] rf_rs2_i[16]
+ rf_rs2_i[17] rf_rs2_i[18] rf_rs2_i[19] rf_rs2_i[1] rf_rs2_i[20] rf_rs2_i[21] rf_rs2_i[22]
+ rf_rs2_i[23] rf_rs2_i[24] rf_rs2_i[25] rf_rs2_i[26] rf_rs2_i[27] rf_rs2_i[28] rf_rs2_i[29]
+ rf_rs2_i[2] rf_rs2_i[30] rf_rs2_i[31] rf_rs2_i[3] rf_rs2_i[4] rf_rs2_i[5] rf_rs2_i[6]
+ rf_rs2_i[7] rf_rs2_i[8] rf_rs2_i[9] rf_wr_data_o[0] rf_wr_data_o[10] rf_wr_data_o[11]
+ rf_wr_data_o[12] rf_wr_data_o[13] rf_wr_data_o[14] rf_wr_data_o[15] rf_wr_data_o[16]
+ rf_wr_data_o[17] rf_wr_data_o[18] rf_wr_data_o[19] rf_wr_data_o[1] rf_wr_data_o[20]
+ rf_wr_data_o[21] rf_wr_data_o[22] rf_wr_data_o[23] rf_wr_data_o[24] rf_wr_data_o[25]
+ rf_wr_data_o[26] rf_wr_data_o[27] rf_wr_data_o[28] rf_wr_data_o[29] rf_wr_data_o[2]
+ rf_wr_data_o[30] rf_wr_data_o[31] rf_wr_data_o[3] rf_wr_data_o[4] rf_wr_data_o[5]
+ rf_wr_data_o[6] rf_wr_data_o[7] rf_wr_data_o[8] rf_wr_data_o[9] rf_wr_en_o rf_wr_reg_o[0]
+ rf_wr_reg_o[1] rf_wr_reg_o[2] rf_wr_reg_o[3] rf_wr_reg_o[4] rst_ni
XFILLER_67_553 VGND VGND VPWR VPWR sky130_fd_sc_hd__decap_6
X_3155_ _0465_ _0551_ VGND VGND VPWR VPWR _1067_ sky130_fd_sc_hd__and2_1
XFILLER_82_501 VGND VGND VPWR VPWR sky130_ef_sc_hd__decap_12
XFILLER_27_417 VGND VGND VPWR VPWR sky130_ef_sc_hd__decap_12
X_3086_ _0507_ _0988_ VGND VGND VPWR VPWR _0998_ sky130_fd_sc_hd__and2b_1
XFILLER_82_545 VGND VGND VPWR VPWR sky130_ef_sc_hd__decap_12
XFILLER_67_597 VGND VGND VPWR VPWR sky130_ef_sc_hd__decap_12
XFILLER_82_589 VGND VGND VPWR VPWR sky130_ef_sc_hd__decap_12
XFILLER_35_461 VGND VGND VPWR VPWR sky130_ef_sc_hd__decap_12
XFILLER_22_133 VGND VGND VPWR VPWR sky130_fd_sc_hd__decap_6
XFILLER_52_29 VGND VGND VPWR VPWR sky130_fd_sc_hd__fill_2
XFILLER_168_29 VGND VGND VPWR VPWR sky130_ef_sc_hd__decap_12
XFILLER_167_105 VGND VGND VPWR VPWR sky130_fd_sc_hd__decap_6
X_3988_ net7 net25 i_exec_stage.exec_state_o\[8\] VGND VGND VPWR VPWR _1831_ sky130_fd_sc_hd__mux2_2
XFILLER_50_475 VGND VGND VPWR VPWR sky130_fd_sc_hd__fill_1
XFILLER_167_149 VGND VGND VPWR VPWR sky130_ef_sc_hd__decap_12
X_2939_ i_decode_stage.reg_meta_o\[20\] _0727_ _0386_ _0853_ VGND VGND VPWR VPWR _0854_
+ sky130_fd_sc_hd__a211o_1
XFILLER_22_177 VGND VGND VPWR VPWR sky130_ef_sc_hd__decap_12
XFILLER_148_363 VGND VGND VPWR VPWR sky130_fd_sc_hd__fill_1
XFILLER_136_525 VGND VGND VPWR VPWR sky130_fd_sc_hd__decap_6
XFILLER_151_517 VGND VGND VPWR VPWR sky130_ef_sc_hd__decap_12
XFILLER_136_569 VGND VGND VPWR VPWR sky130_ef_sc_hd__decap_12
X_4609_ _2232_ VGND VGND VPWR VPWR _0194_ sky130_fd_sc_hd__clkbuf_1
XFILLER_117_783 VGND VGND VPWR VPWR sky130_fd_sc_hd__fill_1
XFILLER_131_230 VGND VGND VPWR VPWR sky130_fd_sc_hd__decap_4
XFILLER_104_433 VGND VGND VPWR VPWR sky130_ef_sc_hd__decap_12
XFILLER_89_155 VGND VGND VPWR VPWR sky130_ef_sc_hd__decap_12
XFILLER_89_144 VGND VGND VPWR VPWR sky130_fd_sc_hd__decap_3
XFILLER_104_477 VGND VGND VPWR VPWR sky130_ef_sc_hd__decap_12
XFILLER_58_531 VGND VGND VPWR VPWR sky130_fd_sc_hd__fill_1
XFILLER_92_309 VGND VGND VPWR VPWR sky130_fd_sc_hd__decap_4
XFILLER_73_501 VGND VGND VPWR VPWR sky130_fd_sc_hd__decap_3
XFILLER_172_3 VGND VGND VPWR VPWR sky130_ef_sc_hd__decap_12
XTAP_2501 VGND VPWR sky130_fd_sc_hd__tapvpwrvgnd_1
XFILLER_45_225 VGND VGND VPWR VPWR sky130_fd_sc_hd__decap_4
XFILLER_46_737 VGND VGND VPWR VPWR sky130_ef_sc_hd__decap_12
XTAP_2545 VGND VPWR sky130_fd_sc_hd__tapvpwrvgnd_1
XTAP_2534 VGND VPWR sky130_fd_sc_hd__tapvpwrvgnd_1
XTAP_2523 VGND VPWR sky130_fd_sc_hd__tapvpwrvgnd_1
XTAP_2512 VGND VPWR sky130_fd_sc_hd__tapvpwrvgnd_1
XTAP_1800 VGND VPWR sky130_fd_sc_hd__tapvpwrvgnd_1
XFILLER_26_41 VGND VGND VPWR VPWR sky130_ef_sc_hd__decap_12
XTAP_2578 VGND VPWR sky130_fd_sc_hd__tapvpwrvgnd_1
XTAP_2567 VGND VPWR sky130_fd_sc_hd__tapvpwrvgnd_1
XTAP_2556 VGND VPWR sky130_fd_sc_hd__tapvpwrvgnd_1
XTAP_1833 VGND VPWR sky130_fd_sc_hd__tapvpwrvgnd_1
XTAP_1822 VGND VPWR sky130_fd_sc_hd__tapvpwrvgnd_1
XTAP_1811 VGND VPWR sky130_fd_sc_hd__tapvpwrvgnd_1
XFILLER_61_729 VGND VGND VPWR VPWR sky130_ef_sc_hd__decap_12
XFILLER_14_601 VGND VGND VPWR VPWR sky130_ef_sc_hd__decap_12
XFILLER_54_781 VGND VGND VPWR VPWR sky130_ef_sc_hd__decap_12
XFILLER_159_617 VGND VGND VPWR VPWR sky130_ef_sc_hd__decap_12
XTAP_2589 VGND VPWR sky130_fd_sc_hd__tapvpwrvgnd_1
XTAP_1855 VGND VPWR sky130_fd_sc_hd__tapvpwrvgnd_1
XTAP_1866 VGND VPWR sky130_fd_sc_hd__tapvpwrvgnd_1
XTAP_1844 VGND VPWR sky130_fd_sc_hd__tapvpwrvgnd_1
XFILLER_13_111 VGND VGND VPWR VPWR sky130_fd_sc_hd__fill_1
XFILLER_14_645 VGND VGND VPWR VPWR sky130_ef_sc_hd__decap_12
XFILLER_26_85 VGND VGND VPWR VPWR sky130_ef_sc_hd__decap_12
XTAP_1899 VGND VPWR sky130_fd_sc_hd__tapvpwrvgnd_1
XTAP_1888 VGND VPWR sky130_fd_sc_hd__tapvpwrvgnd_1
XTAP_1877 VGND VPWR sky130_fd_sc_hd__tapvpwrvgnd_1
XFILLER_9_137 VGND VGND VPWR VPWR sky130_ef_sc_hd__decap_12
XFILLER_41_497 VGND VGND VPWR VPWR sky130_fd_sc_hd__decap_6
XFILLER_139_385 VGND VGND VPWR VPWR sky130_fd_sc_hd__decap_6
XFILLER_127_503 VGND VGND VPWR VPWR sky130_fd_sc_hd__fill_1
XFILLER_6_811 VGND VGND VPWR VPWR sky130_fd_sc_hd__fill_1
XFILLER_154_333 VGND VGND VPWR VPWR sky130_ef_sc_hd__decap_12
XFILLER_154_377 VGND VGND VPWR VPWR sky130_ef_sc_hd__decap_12
XFILLER_115_709 VGND VGND VPWR VPWR sky130_ef_sc_hd__decap_12
XFILLER_170_837 VGND VGND VPWR VPWR sky130_fd_sc_hd__decap_4
XFILLER_123_753 VGND VGND VPWR VPWR sky130_ef_sc_hd__decap_12
XFILLER_107_293 VGND VGND VPWR VPWR sky130_fd_sc_hd__decap_8
XFILLER_123_797 VGND VGND VPWR VPWR sky130_ef_sc_hd__decap_12