* NGSPICE file created from reg_file.ext - technology: sky130A

* Black-box entry subcircuit for sky130_fd_sc_hd__clkbuf_1 abstract view
.subckt sky130_fd_sc_hd__clkbuf_1 A VGND VNB VPB VPWR X
.ends

* Black-box entry subcircuit for sky130_fd_sc_hd__fill_1 abstract view
.subckt sky130_fd_sc_hd__fill_1 VGND VNB VPB VPWR
.ends

* Black-box entry subcircuit for sky130_fd_sc_hd__dfxtp_1 abstract view
.subckt sky130_fd_sc_hd__dfxtp_1 CLK D VGND VNB VPB VPWR Q
.ends

* Black-box entry subcircuit for sky130_fd_sc_hd__mux4_1 abstract view
.subckt sky130_fd_sc_hd__mux4_1 A0 A1 A2 A3 S0 S1 VGND VNB VPB VPWR X
.ends

* Black-box entry subcircuit for sky130_fd_sc_hd__decap_3 abstract view
.subckt sky130_fd_sc_hd__decap_3 VGND VNB VPB VPWR
.ends

* Black-box entry subcircuit for sky130_fd_sc_hd__mux2_1 abstract view
.subckt sky130_fd_sc_hd__mux2_1 A0 A1 S VGND VNB VPB VPWR X
.ends

* Black-box entry subcircuit for sky130_fd_sc_hd__inv_2 abstract view
.subckt sky130_fd_sc_hd__inv_2 A VGND VNB VPB VPWR Y
.ends

* Black-box entry subcircuit for sky130_fd_sc_hd__decap_4 abstract view
.subckt sky130_fd_sc_hd__decap_4 VGND VNB VPB VPWR
.ends

* Black-box entry subcircuit for sky130_fd_sc_hd__o211a_1 abstract view
.subckt sky130_fd_sc_hd__o211a_1 A1 A2 B1 C1 VGND VNB VPB VPWR X
.ends

* Black-box entry subcircuit for sky130_fd_sc_hd__or2_1 abstract view
.subckt sky130_fd_sc_hd__or2_1 A B VGND VNB VPB VPWR X
.ends

* Black-box entry subcircuit for sky130_fd_sc_hd__fill_2 abstract view
.subckt sky130_fd_sc_hd__fill_2 VGND VNB VPB VPWR
.ends

* Black-box entry subcircuit for sky130_fd_sc_hd__mux4_2 abstract view
.subckt sky130_fd_sc_hd__mux4_2 A0 A1 A2 A3 S0 S1 VGND VNB VPB VPWR X
.ends

* Black-box entry subcircuit for sky130_ef_sc_hd__decap_12 abstract view
.subckt sky130_ef_sc_hd__decap_12 VGND VNB VPB VPWR
.ends

* Black-box entry subcircuit for sky130_fd_sc_hd__decap_6 abstract view
.subckt sky130_fd_sc_hd__decap_6 VGND VNB VPB VPWR
.ends

* Black-box entry subcircuit for sky130_fd_sc_hd__decap_8 abstract view
.subckt sky130_fd_sc_hd__decap_8 VGND VNB VPB VPWR
.ends

* Black-box entry subcircuit for sky130_fd_sc_hd__tapvpwrvgnd_1 abstract view
.subckt sky130_fd_sc_hd__tapvpwrvgnd_1 VGND VPWR
.ends

* Black-box entry subcircuit for sky130_fd_sc_hd__clkbuf_16 abstract view
.subckt sky130_fd_sc_hd__clkbuf_16 A VGND VNB VPB VPWR X
.ends

* Black-box entry subcircuit for sky130_fd_sc_hd__buf_12 abstract view
.subckt sky130_fd_sc_hd__buf_12 A VGND VNB VPB VPWR X
.ends

* Black-box entry subcircuit for sky130_fd_sc_hd__a221o_1 abstract view
.subckt sky130_fd_sc_hd__a221o_1 A1 A2 B1 B2 C1 VGND VNB VPB VPWR X
.ends

* Black-box entry subcircuit for sky130_fd_sc_hd__or2_4 abstract view
.subckt sky130_fd_sc_hd__or2_4 A B VGND VNB VPB VPWR X
.ends

* Black-box entry subcircuit for sky130_fd_sc_hd__a221o_2 abstract view
.subckt sky130_fd_sc_hd__a221o_2 A1 A2 B1 B2 C1 VGND VNB VPB VPWR X
.ends

* Black-box entry subcircuit for sky130_fd_sc_hd__o21a_1 abstract view
.subckt sky130_fd_sc_hd__o21a_1 A1 A2 B1 VGND VNB VPB VPWR X
.ends

* Black-box entry subcircuit for sky130_fd_sc_hd__a31o_1 abstract view
.subckt sky130_fd_sc_hd__a31o_1 A1 A2 A3 B1 VGND VNB VPB VPWR X
.ends

* Black-box entry subcircuit for sky130_fd_sc_hd__buf_1 abstract view
.subckt sky130_fd_sc_hd__buf_1 A VGND VNB VPB VPWR X
.ends

* Black-box entry subcircuit for sky130_fd_sc_hd__o211a_2 abstract view
.subckt sky130_fd_sc_hd__o211a_2 A1 A2 B1 C1 VGND VNB VPB VPWR X
.ends

* Black-box entry subcircuit for sky130_fd_sc_hd__buf_2 abstract view
.subckt sky130_fd_sc_hd__buf_2 A VGND VNB VPB VPWR X
.ends

* Black-box entry subcircuit for sky130_fd_sc_hd__clkbuf_4 abstract view
.subckt sky130_fd_sc_hd__clkbuf_4 A VGND VNB VPB VPWR X
.ends

* Black-box entry subcircuit for sky130_fd_sc_hd__buf_4 abstract view
.subckt sky130_fd_sc_hd__buf_4 A VGND VNB VPB VPWR X
.ends

* Black-box entry subcircuit for sky130_fd_sc_hd__buf_6 abstract view
.subckt sky130_fd_sc_hd__buf_6 A VGND VNB VPB VPWR X
.ends

* Black-box entry subcircuit for sky130_fd_sc_hd__a32o_1 abstract view
.subckt sky130_fd_sc_hd__a32o_1 A1 A2 A3 B1 B2 VGND VNB VPB VPWR X
.ends

* Black-box entry subcircuit for sky130_fd_sc_hd__buf_8 abstract view
.subckt sky130_fd_sc_hd__buf_8 A VGND VNB VPB VPWR X
.ends

* Black-box entry subcircuit for sky130_fd_sc_hd__nor2_4 abstract view
.subckt sky130_fd_sc_hd__nor2_4 A B VGND VNB VPB VPWR Y
.ends

* Black-box entry subcircuit for sky130_fd_sc_hd__nand2_4 abstract view
.subckt sky130_fd_sc_hd__nand2_4 A B VGND VNB VPB VPWR Y
.ends

* Black-box entry subcircuit for sky130_fd_sc_hd__a31o_2 abstract view
.subckt sky130_fd_sc_hd__a31o_2 A1 A2 A3 B1 VGND VNB VPB VPWR X
.ends

* Black-box entry subcircuit for sky130_fd_sc_hd__dfxtp_2 abstract view
.subckt sky130_fd_sc_hd__dfxtp_2 CLK D VGND VNB VPB VPWR Q
.ends

* Black-box entry subcircuit for sky130_fd_sc_hd__nand2_2 abstract view
.subckt sky130_fd_sc_hd__nand2_2 A B VGND VNB VPB VPWR Y
.ends

* Black-box entry subcircuit for sky130_fd_sc_hd__and3b_4 abstract view
.subckt sky130_fd_sc_hd__and3b_4 A_N B C VGND VNB VPB VPWR X
.ends

* Black-box entry subcircuit for sky130_fd_sc_hd__or3b_4 abstract view
.subckt sky130_fd_sc_hd__or3b_4 A B C_N VGND VNB VPB VPWR X
.ends

* Black-box entry subcircuit for sky130_fd_sc_hd__and3_4 abstract view
.subckt sky130_fd_sc_hd__and3_4 A B C VGND VNB VPB VPWR X
.ends

* Black-box entry subcircuit for sky130_fd_sc_hd__and3_1 abstract view
.subckt sky130_fd_sc_hd__and3_1 A B C VGND VNB VPB VPWR X
.ends

* Black-box entry subcircuit for sky130_fd_sc_hd__or3_4 abstract view
.subckt sky130_fd_sc_hd__or3_4 A B C VGND VNB VPB VPWR X
.ends

* Black-box entry subcircuit for sky130_fd_sc_hd__nand3_4 abstract view
.subckt sky130_fd_sc_hd__nand3_4 A B C VGND VNB VPB VPWR Y
.ends

* Black-box entry subcircuit for sky130_fd_sc_hd__and3b_2 abstract view
.subckt sky130_fd_sc_hd__and3b_2 A_N B C VGND VNB VPB VPWR X
.ends

* Black-box entry subcircuit for sky130_fd_sc_hd__o211a_4 abstract view
.subckt sky130_fd_sc_hd__o211a_4 A1 A2 B1 C1 VGND VNB VPB VPWR X
.ends

* Black-box entry subcircuit for sky130_fd_sc_hd__clkinv_4 abstract view
.subckt sky130_fd_sc_hd__clkinv_4 A VGND VNB VPB VPWR Y
.ends

* Black-box entry subcircuit for sky130_fd_sc_hd__clkbuf_2 abstract view
.subckt sky130_fd_sc_hd__clkbuf_2 A VGND VNB VPB VPWR X
.ends

* Black-box entry subcircuit for sky130_fd_sc_hd__dlymetal6s2s_1 abstract view
.subckt sky130_fd_sc_hd__dlymetal6s2s_1 A VGND VNB VPB VPWR X
.ends

* Black-box entry subcircuit for sky130_fd_sc_hd__or3_1 abstract view
.subckt sky130_fd_sc_hd__or3_1 A B C VGND VNB VPB VPWR X
.ends

* Black-box entry subcircuit for sky130_fd_sc_hd__nor2_8 abstract view
.subckt sky130_fd_sc_hd__nor2_8 A B VGND VNB VPB VPWR Y
.ends

* Black-box entry subcircuit for sky130_fd_sc_hd__clkbuf_8 abstract view
.subckt sky130_fd_sc_hd__clkbuf_8 A VGND VNB VPB VPWR X
.ends

* Black-box entry subcircuit for sky130_fd_sc_hd__or2_2 abstract view
.subckt sky130_fd_sc_hd__or2_2 A B VGND VNB VPB VPWR X
.ends

* Black-box entry subcircuit for sky130_fd_sc_hd__a32o_2 abstract view
.subckt sky130_fd_sc_hd__a32o_2 A1 A2 A3 B1 B2 VGND VNB VPB VPWR X
.ends

* Black-box entry subcircuit for sky130_fd_sc_hd__inv_4 abstract view
.subckt sky130_fd_sc_hd__inv_4 A VGND VNB VPB VPWR Y
.ends

* Black-box entry subcircuit for sky130_fd_sc_hd__and2_1 abstract view
.subckt sky130_fd_sc_hd__and2_1 A B VGND VNB VPB VPWR X
.ends

* Black-box entry subcircuit for sky130_fd_sc_hd__a221o_4 abstract view
.subckt sky130_fd_sc_hd__a221o_4 A1 A2 B1 B2 C1 VGND VNB VPB VPWR X
.ends

.subckt reg_file VGND VPWR clk_i port1_data_o[0] port1_data_o[10] port1_data_o[11]
+ port1_data_o[12] port1_data_o[13] port1_data_o[14] port1_data_o[15] port1_data_o[16]
+ port1_data_o[17] port1_data_o[18] port1_data_o[19] port1_data_o[1] port1_data_o[20]
+ port1_data_o[21] port1_data_o[22] port1_data_o[23] port1_data_o[24] port1_data_o[25]
+ port1_data_o[26] port1_data_o[27] port1_data_o[28] port1_data_o[29] port1_data_o[2]
+ port1_data_o[30] port1_data_o[31] port1_data_o[3] port1_data_o[4] port1_data_o[5]
+ port1_data_o[6] port1_data_o[7] port1_data_o[8] port1_data_o[9] port1_reg_i[0] port1_reg_i[1]
+ port1_reg_i[2] port1_reg_i[3] port1_reg_i[4] port2_data_o[0] port2_data_o[10] port2_data_o[11]
+ port2_data_o[12] port2_data_o[13] port2_data_o[14] port2_data_o[15] port2_data_o[16]
+ port2_data_o[17] port2_data_o[18] port2_data_o[19] port2_data_o[1] port2_data_o[20]
+ port2_data_o[21] port2_data_o[22] port2_data_o[23] port2_data_o[24] port2_data_o[25]
+ port2_data_o[26] port2_data_o[27] port2_data_o[28] port2_data_o[29] port2_data_o[2]
+ port2_data_o[30] port2_data_o[31] port2_data_o[3] port2_data_o[4] port2_data_o[5]
+ port2_data_o[6] port2_data_o[7] port2_data_o[8] port2_data_o[9] port2_reg_i[0] port2_reg_i[1]
+ port2_reg_i[2] port2_reg_i[3] port2_reg_i[4] wr_data_i[0] wr_data_i[10] wr_data_i[11]
+ wr_data_i[12] wr_data_i[13] wr_data_i[14] wr_data_i[15] wr_data_i[16] wr_data_i[17]
+ wr_data_i[18] wr_data_i[19] wr_data_i[1] wr_data_i[20] wr_data_i[21] wr_data_i[22]
+ wr_data_i[23] wr_data_i[24] wr_data_i[25] wr_data_i[26] wr_data_i[27] wr_data_i[28]
+ wr_data_i[29] wr_data_i[2] wr_data_i[30] wr_data_i[31] wr_data_i[3] wr_data_i[4]
+ wr_data_i[5] wr_data_i[6] wr_data_i[7] wr_data_i[8] wr_data_i[9] wr_en_i wr_reg_i[0]
+ wr_reg_i[1] wr_reg_i[2] wr_reg_i[3] wr_reg_i[4]
X_05903_ _02794_ VGND VGND VPWR VPWR _01412_ sky130_fd_sc_hd__clkbuf_1
XFILLER_79_391 VGND VGND VPWR VPWR sky130_fd_sc_hd__fill_1
XFILLER_67_520 VGND VGND VPWR VPWR sky130_fd_sc_hd__fill_1
X_09671_ net769 _01643_ VGND VGND VPWR VPWR rf\[27\]\[25\] sky130_fd_sc_hd__dfxtp_1
X_06883_ rf\[0\]\[22\] rf\[1\]\[22\] rf\[2\]\[22\] rf\[3\]\[22\] _03191_ _03193_ VGND
+ VGND VPWR VPWR _03395_ sky130_fd_sc_hd__mux4_1
XFILLER_27_417 VGND VGND VPWR VPWR sky130_fd_sc_hd__decap_3
X_05834_ _02758_ VGND VGND VPWR VPWR _01445_ sky130_fd_sc_hd__clkbuf_1
X_05765_ _02074_ rf\[22\]\[20\] _02711_ VGND VGND VPWR VPWR _02723_ sky130_fd_sc_hd__mux2_1
X_08725__752 clknet_1_0__leaf__04485_ VGND VGND VPWR VPWR net864 sky130_fd_sc_hd__inv_2
X_08231__284 clknet_1_0__leaf__04459_ VGND VGND VPWR VPWR net396 sky130_fd_sc_hd__inv_2
XFILLER_54_247 VGND VGND VPWR VPWR sky130_fd_sc_hd__decap_4
X_07504_ _03623_ _03977_ _03986_ _03650_ VGND VGND VPWR VPWR net91 sky130_fd_sc_hd__o211a_1
X_04716_ rf\[19\]\[10\] _02094_ _02154_ VGND VGND VPWR VPWR _02176_ sky130_fd_sc_hd__mux2_1
X_05696_ _02687_ VGND VGND VPWR VPWR _01512_ sky130_fd_sc_hd__clkbuf_1
X_07435_ _03603_ _03920_ VGND VGND VPWR VPWR _03921_ sky130_fd_sc_hd__or2_1
XFILLER_52_29 VGND VGND VPWR VPWR sky130_fd_sc_hd__decap_3
XFILLER_23_667 VGND VGND VPWR VPWR sky130_fd_sc_hd__decap_4
X_04647_ rf\[3\]\[11\] _02092_ _02119_ VGND VGND VPWR VPWR _02140_ sky130_fd_sc_hd__mux2_1
XFILLER_50_453 VGND VGND VPWR VPWR sky130_fd_sc_hd__fill_2
X_04578_ _02099_ VGND VGND VPWR VPWR _02042_ sky130_fd_sc_hd__clkbuf_1
XFILLER_10_339 VGND VGND VPWR VPWR sky130_fd_sc_hd__fill_1
X_07366_ rf\[8\]\[12\] rf\[9\]\[12\] rf\[10\]\[12\] rf\[11\]\[12\] _03646_ _03591_
+ VGND VGND VPWR VPWR _03856_ sky130_fd_sc_hd__mux4_1
X_07297_ rf\[0\]\[9\] rf\[1\]\[9\] rf\[2\]\[9\] rf\[3\]\[9\] _03695_ _03696_ VGND
+ VGND VPWR VPWR _03790_ sky130_fd_sc_hd__mux4_2
X_09105_ net203 _01077_ VGND VGND VPWR VPWR rf\[29\]\[3\] sky130_fd_sc_hd__dfxtp_1
X_06317_ _02096_ rf\[14\]\[9\] _02985_ VGND VGND VPWR VPWR _03008_ sky130_fd_sc_hd__mux2_1
X_06248_ _02972_ VGND VGND VPWR VPWR _01245_ sky130_fd_sc_hd__clkbuf_1
X_08470__511 clknet_1_1__leaf__04471_ VGND VGND VPWR VPWR net623 sky130_fd_sc_hd__inv_2
X_06179_ _02936_ VGND VGND VPWR VPWR _01278_ sky130_fd_sc_hd__clkbuf_1
XFILLER_89_111 VGND VGND VPWR VPWR sky130_fd_sc_hd__fill_1
XFILLER_117_55 VGND VGND VPWR VPWR sky130_fd_sc_hd__fill_1
XFILLER_104_477 VGND VGND VPWR VPWR sky130_ef_sc_hd__decap_12
XFILLER_89_166 VGND VGND VPWR VPWR sky130_fd_sc_hd__fill_2
X_09938_ net1036 _01910_ VGND VGND VPWR VPWR rf\[5\]\[4\] sky130_fd_sc_hd__dfxtp_1
X_08585__620 clknet_1_1__leaf__04477_ VGND VGND VPWR VPWR net732 sky130_fd_sc_hd__inv_2
XFILLER_92_309 VGND VGND VPWR VPWR sky130_fd_sc_hd__decap_6
XFILLER_73_501 VGND VGND VPWR VPWR sky130_fd_sc_hd__decap_3
XFILLER_58_564 VGND VGND VPWR VPWR sky130_fd_sc_hd__decap_4
XFILLER_58_553 VGND VGND VPWR VPWR sky130_fd_sc_hd__decap_8
X_08091__152 clknet_1_0__leaf__04451_ VGND VGND VPWR VPWR net264 sky130_fd_sc_hd__inv_2
X_09869_ net967 _01841_ VGND VGND VPWR VPWR rf\[7\]\[31\] sky130_fd_sc_hd__dfxtp_1
XFILLER_85_383 VGND VGND VPWR VPWR sky130_fd_sc_hd__decap_8
XFILLER_85_372 VGND VGND VPWR VPWR sky130_fd_sc_hd__decap_4
XFILLER_45_225 VGND VGND VPWR VPWR sky130_fd_sc_hd__fill_2
XFILLER_46_737 VGND VGND VPWR VPWR sky130_fd_sc_hd__decap_8
XTAP_1800 VGND VPWR sky130_fd_sc_hd__tapvpwrvgnd_1
XFILLER_73_578 VGND VGND VPWR VPWR sky130_fd_sc_hd__fill_2
XFILLER_73_556 VGND VGND VPWR VPWR sky130_fd_sc_hd__decap_4
XTAP_1833 VGND VPWR sky130_fd_sc_hd__tapvpwrvgnd_1
XTAP_1811 VGND VPWR sky130_fd_sc_hd__tapvpwrvgnd_1
XTAP_1822 VGND VPWR sky130_fd_sc_hd__tapvpwrvgnd_1
XFILLER_61_729 VGND VGND VPWR VPWR sky130_ef_sc_hd__decap_12
XTAP_1866 VGND VPWR sky130_fd_sc_hd__tapvpwrvgnd_1
XTAP_1855 VGND VPWR sky130_fd_sc_hd__tapvpwrvgnd_1
XTAP_1844 VGND VPWR sky130_fd_sc_hd__tapvpwrvgnd_1
XFILLER_13_111 VGND VGND VPWR VPWR sky130_fd_sc_hd__fill_1
XFILLER_14_645 VGND VGND VPWR VPWR sky130_ef_sc_hd__decap_12
XFILLER_26_85 VGND VGND VPWR VPWR sky130_fd_sc_hd__decap_6
XTAP_1899 VGND VPWR sky130_fd_sc_hd__tapvpwrvgnd_1
XTAP_1888 VGND VPWR sky130_fd_sc_hd__tapvpwrvgnd_1
XTAP_1877 VGND VPWR sky130_fd_sc_hd__tapvpwrvgnd_1
X_08208__264 clknet_1_0__leaf__04456_ VGND VGND VPWR VPWR net376 sky130_fd_sc_hd__inv_2
XFILLER_115_709 VGND VGND VPWR VPWR sky130_ef_sc_hd__decap_12
Xclkbuf_0__04490_ _04490_ VGND VGND VPWR VPWR clknet_0__04490_ sky130_fd_sc_hd__clkbuf_16
XFILLER_68_317 VGND VGND VPWR VPWR sky130_fd_sc_hd__decap_8
XFILLER_110_469 VGND VGND VPWR VPWR sky130_fd_sc_hd__fill_1
XFILLER_95_169 VGND VGND VPWR VPWR sky130_fd_sc_hd__decap_6
X_08748__774 clknet_1_0__leaf__04486_ VGND VGND VPWR VPWR net886 sky130_fd_sc_hd__inv_2
X_10009_ net1107 _01981_ VGND VGND VPWR VPWR rf\[19\]\[11\] sky130_fd_sc_hd__dfxtp_1
X_05550_ _02611_ VGND VGND VPWR VPWR _01582_ sky130_fd_sc_hd__clkbuf_1
X_05481_ _02575_ VGND VGND VPWR VPWR _01615_ sky130_fd_sc_hd__clkbuf_1
X_07220_ rf\[12\]\[5\] rf\[13\]\[5\] rf\[14\]\[5\] rf\[15\]\[5\] _03599_ _03600_ VGND
+ VGND VPWR VPWR _03717_ sky130_fd_sc_hd__mux4_1
X_07151_ rf\[0\]\[2\] rf\[1\]\[2\] rf\[2\]\[2\] rf\[3\]\[2\] _03583_ _03585_ VGND
+ VGND VPWR VPWR _03651_ sky130_fd_sc_hd__mux4_1
X_06102_ rf\[17\]\[17\] _02080_ _02882_ VGND VGND VPWR VPWR _02897_ sky130_fd_sc_hd__mux2_1
X_09063__11 clknet_1_0__leaf__04444_ VGND VGND VPWR VPWR net123 sky130_fd_sc_hd__inv_2
X_07082_ net7 VGND VGND VPWR VPWR _03584_ sky130_fd_sc_hd__buf_12
X_06033_ _02861_ VGND VGND VPWR VPWR _01349_ sky130_fd_sc_hd__clkbuf_1
XFILLER_87_604 VGND VGND VPWR VPWR sky130_ef_sc_hd__decap_12
XFILLER_113_274 VGND VGND VPWR VPWR sky130_fd_sc_hd__decap_6
XFILLER_99_497 VGND VGND VPWR VPWR sky130_fd_sc_hd__decap_6
X_07984_ _04435_ _04437_ _04439_ _04441_ _03231_ VGND VGND VPWR VPWR _04442_ sky130_fd_sc_hd__a221o_1
XFILLER_86_136 VGND VGND VPWR VPWR sky130_fd_sc_hd__decap_4
X_06935_ _03261_ _03444_ VGND VGND VPWR VPWR _03445_ sky130_fd_sc_hd__or2_1
XFILLER_74_309 VGND VGND VPWR VPWR sky130_ef_sc_hd__decap_12
X_09723_ net821 _01695_ VGND VGND VPWR VPWR rf\[2\]\[13\] sky130_fd_sc_hd__dfxtp_1
X_09654_ net752 _01626_ VGND VGND VPWR VPWR rf\[27\]\[8\] sky130_fd_sc_hd__dfxtp_1
X_06866_ rf\[16\]\[21\] rf\[17\]\[21\] rf\[18\]\[21\] rf\[19\]\[21\] _03243_ _03244_
+ VGND VGND VPWR VPWR _03379_ sky130_fd_sc_hd__mux4_1
XFILLER_27_225 VGND VGND VPWR VPWR sky130_fd_sc_hd__decap_3
XFILLER_28_737 VGND VGND VPWR VPWR sky130_fd_sc_hd__decap_8
X_05817_ _02060_ rf\[21\]\[27\] _02745_ VGND VGND VPWR VPWR _02750_ sky130_fd_sc_hd__mux2_1
XFILLER_82_331 VGND VGND VPWR VPWR sky130_fd_sc_hd__decap_3
XFILLER_27_247 VGND VGND VPWR VPWR sky130_fd_sc_hd__fill_1
X_09585_ net683 _01557_ VGND VGND VPWR VPWR rf\[25\]\[3\] sky130_fd_sc_hd__dfxtp_1
XFILLER_103_79 VGND VGND VPWR VPWR sky130_fd_sc_hd__fill_1
XFILLER_70_504 VGND VGND VPWR VPWR sky130_ef_sc_hd__decap_12
XTAP_1129 VGND VPWR sky130_fd_sc_hd__tapvpwrvgnd_1
XTAP_1118 VGND VPWR sky130_fd_sc_hd__tapvpwrvgnd_1
XTAP_1107 VGND VPWR sky130_fd_sc_hd__tapvpwrvgnd_1
X_06797_ _03206_ _03313_ VGND VGND VPWR VPWR _03314_ sky130_fd_sc_hd__or2_4
XFILLER_43_729 VGND VGND VPWR VPWR sky130_ef_sc_hd__decap_12
X_05748_ _02714_ VGND VGND VPWR VPWR _01487_ sky130_fd_sc_hd__clkbuf_1
X_05679_ _02054_ rf\[23\]\[30\] _02677_ VGND VGND VPWR VPWR _02679_ sky130_fd_sc_hd__mux2_1
X_08541__578 clknet_1_0__leaf__04475_ VGND VGND VPWR VPWR net690 sky130_fd_sc_hd__inv_2
X_07418_ _03578_ _03904_ VGND VGND VPWR VPWR _03905_ sky130_fd_sc_hd__or2_1
X_07349_ _03833_ _03835_ _03837_ _03839_ _03623_ VGND VGND VPWR VPWR _03840_ sky130_fd_sc_hd__a221o_2
X_08617__649 clknet_1_1__leaf__04480_ VGND VGND VPWR VPWR net761 sky130_fd_sc_hd__inv_2
XFILLER_12_98 VGND VGND VPWR VPWR sky130_fd_sc_hd__decap_8
XFILLER_120_701 VGND VGND VPWR VPWR sky130_ef_sc_hd__decap_12
XFILLER_77_169 VGND VGND VPWR VPWR sky130_fd_sc_hd__fill_1
XFILLER_65_309 VGND VGND VPWR VPWR sky130_fd_sc_hd__fill_1
XFILLER_92_139 VGND VGND VPWR VPWR sky130_fd_sc_hd__fill_1
XFILLER_18_258 VGND VGND VPWR VPWR sky130_fd_sc_hd__decap_4
XFILLER_46_589 VGND VGND VPWR VPWR sky130_fd_sc_hd__decap_8
XTAP_1641 VGND VPWR sky130_fd_sc_hd__tapvpwrvgnd_1
XTAP_1630 VGND VPWR sky130_fd_sc_hd__tapvpwrvgnd_1
XFILLER_61_537 VGND VGND VPWR VPWR sky130_fd_sc_hd__decap_8
XTAP_1685 VGND VPWR sky130_fd_sc_hd__tapvpwrvgnd_1
XTAP_1674 VGND VPWR sky130_fd_sc_hd__tapvpwrvgnd_1
XTAP_1663 VGND VPWR sky130_fd_sc_hd__tapvpwrvgnd_1
XTAP_1652 VGND VPWR sky130_fd_sc_hd__tapvpwrvgnd_1
XFILLER_53_72 VGND VGND VPWR VPWR sky130_fd_sc_hd__fill_1
XFILLER_53_50 VGND VGND VPWR VPWR sky130_fd_sc_hd__fill_1
XTAP_1696 VGND VPWR sky130_fd_sc_hd__tapvpwrvgnd_1
X_08477__517 clknet_1_1__leaf__04472_ VGND VGND VPWR VPWR net629 sky130_fd_sc_hd__inv_2
XFILLER_10_681 VGND VGND VPWR VPWR sky130_ef_sc_hd__decap_12
XFILLER_69_604 VGND VGND VPWR VPWR sky130_fd_sc_hd__decap_4
XFILLER_123_594 VGND VGND VPWR VPWR sky130_ef_sc_hd__decap_12
Xclkbuf_0__04473_ _04473_ VGND VGND VPWR VPWR clknet_0__04473_ sky130_fd_sc_hd__clkbuf_16
XFILLER_96_445 VGND VGND VPWR VPWR sky130_fd_sc_hd__decap_4
XFILLER_96_456 VGND VGND VPWR VPWR sky130_fd_sc_hd__decap_3
XFILLER_84_607 VGND VGND VPWR VPWR sky130_fd_sc_hd__fill_2
XFILLER_83_106 VGND VGND VPWR VPWR sky130_fd_sc_hd__decap_6
X_04981_ rf\[10\]\[13\] _02088_ _02297_ VGND VGND VPWR VPWR _02316_ sky130_fd_sc_hd__mux2_1
XFILLER_110_288 VGND VGND VPWR VPWR sky130_fd_sc_hd__fill_1
X_06720_ _03211_ _03239_ VGND VGND VPWR VPWR _03240_ sky130_fd_sc_hd__or2_1
X_06651_ _03179_ VGND VGND VPWR VPWR _01049_ sky130_fd_sc_hd__clkbuf_1
X_05602_ _02637_ VGND VGND VPWR VPWR _01556_ sky130_fd_sc_hd__clkbuf_1
XFILLER_25_729 VGND VGND VPWR VPWR sky130_ef_sc_hd__decap_12
X_06582_ _02096_ rf\[29\]\[9\] _03122_ VGND VGND VPWR VPWR _03145_ sky130_fd_sc_hd__mux2_1
X_09370_ net468 _01342_ VGND VGND VPWR VPWR rf\[18\]\[12\] sky130_fd_sc_hd__dfxtp_1
XFILLER_52_559 VGND VGND VPWR VPWR sky130_fd_sc_hd__decap_8
X_05533_ _02601_ VGND VGND VPWR VPWR _01589_ sky130_fd_sc_hd__clkbuf_1
X_05464_ _02106_ rf\[27\]\[4\] _02537_ VGND VGND VPWR VPWR _02566_ sky130_fd_sc_hd__mux2_1
X_08501__540 clknet_1_0__leaf__04473_ VGND VGND VPWR VPWR net652 sky130_fd_sc_hd__inv_2
X_07203_ _03699_ _03700_ _03682_ VGND VGND VPWR VPWR _03701_ sky130_fd_sc_hd__o21a_1
X_05395_ _02104_ rf\[28\]\[5\] _02502_ VGND VGND VPWR VPWR _02530_ sky130_fd_sc_hd__mux2_1
X_07134_ _03580_ _03634_ VGND VGND VPWR VPWR _03635_ sky130_fd_sc_hd__or2_1
XFILLER_106_539 VGND VGND VPWR VPWR sky130_fd_sc_hd__fill_1
X_07065_ _03205_ _03565_ _03567_ _03216_ VGND VGND VPWR VPWR _03568_ sky130_fd_sc_hd__a31o_1
X_06016_ rf\[18\]\[27\] _02060_ _02848_ VGND VGND VPWR VPWR _02853_ sky130_fd_sc_hd__mux2_1
XFILLER_114_572 VGND VGND VPWR VPWR sky130_fd_sc_hd__decap_8
XFILLER_102_701 VGND VGND VPWR VPWR sky130_ef_sc_hd__decap_12
XFILLER_99_261 VGND VGND VPWR VPWR sky130_ef_sc_hd__decap_12
X_08237__290 clknet_1_0__leaf__04459_ VGND VGND VPWR VPWR net402 sky130_fd_sc_hd__inv_2
X_07967_ rf\[0\]\[12\] rf\[1\]\[12\] rf\[2\]\[12\] rf\[3\]\[12\] _03191_ _03193_ VGND
+ VGND VPWR VPWR _04425_ sky130_fd_sc_hd__mux4_1
XFILLER_101_277 VGND VGND VPWR VPWR sky130_fd_sc_hd__decap_3
XFILLER_74_139 VGND VGND VPWR VPWR sky130_fd_sc_hd__fill_1
X_09706_ net804 _01678_ VGND VGND VPWR VPWR rf\[28\]\[28\] sky130_fd_sc_hd__dfxtp_1
X_06918_ _03188_ _03428_ _03265_ VGND VGND VPWR VPWR _03429_ sky130_fd_sc_hd__o21a_1
X_07898_ _04353_ _04355_ _04357_ _04359_ net5 VGND VGND VPWR VPWR _04360_ sky130_fd_sc_hd__a221o_1
X_09637_ net735 _01609_ VGND VGND VPWR VPWR rf\[26\]\[23\] sky130_fd_sc_hd__dfxtp_1
XFILLER_83_673 VGND VGND VPWR VPWR sky130_fd_sc_hd__decap_4
XFILLER_28_589 VGND VGND VPWR VPWR sky130_fd_sc_hd__decap_8
X_06849_ rf\[12\]\[20\] rf\[13\]\[20\] rf\[14\]\[20\] rf\[15\]\[20\] _03207_ _03208_
+ VGND VGND VPWR VPWR _03363_ sky130_fd_sc_hd__mux4_1
X_09568_ net666 _01540_ VGND VGND VPWR VPWR rf\[24\]\[18\] sky130_fd_sc_hd__dfxtp_1
Xclkbuf_1_0__f__04462_ clknet_0__04462_ VGND VGND VPWR VPWR clknet_1_0__leaf__04462_
+ sky130_fd_sc_hd__clkbuf_16
XFILLER_43_559 VGND VGND VPWR VPWR sky130_fd_sc_hd__fill_1
X_09499_ net597 _01471_ VGND VGND VPWR VPWR rf\[22\]\[13\] sky130_fd_sc_hd__dfxtp_1
XFILLER_7_449 VGND VGND VPWR VPWR sky130_fd_sc_hd__fill_1
XFILLER_109_377 VGND VGND VPWR VPWR sky130_fd_sc_hd__fill_1
XFILLER_99_57 VGND VGND VPWR VPWR sky130_fd_sc_hd__decap_6
XFILLER_2_121 VGND VGND VPWR VPWR sky130_ef_sc_hd__decap_12
XFILLER_120_553 VGND VGND VPWR VPWR sky130_fd_sc_hd__fill_2
XFILLER_48_83 VGND VGND VPWR VPWR sky130_fd_sc_hd__fill_1
XFILLER_0_35 VGND VGND VPWR VPWR sky130_fd_sc_hd__decap_8
XFILLER_0_13 VGND VGND VPWR VPWR sky130_ef_sc_hd__decap_12
XFILLER_61_301 VGND VGND VPWR VPWR sky130_fd_sc_hd__fill_1
XFILLER_0_57 VGND VGND VPWR VPWR sky130_fd_sc_hd__decap_6
XFILLER_61_334 VGND VGND VPWR VPWR sky130_fd_sc_hd__fill_2
XFILLER_34_537 VGND VGND VPWR VPWR sky130_fd_sc_hd__fill_1
XTAP_1460 VGND VPWR sky130_fd_sc_hd__tapvpwrvgnd_1
X_08524__562 clknet_1_0__leaf__04474_ VGND VGND VPWR VPWR net674 sky130_fd_sc_hd__inv_2
XTAP_1493 VGND VPWR sky130_fd_sc_hd__tapvpwrvgnd_1
XTAP_1471 VGND VPWR sky130_fd_sc_hd__tapvpwrvgnd_1
XTAP_1482 VGND VPWR sky130_fd_sc_hd__tapvpwrvgnd_1
XFILLER_9_55 VGND VGND VPWR VPWR sky130_fd_sc_hd__fill_1
X_09018__22 clknet_1_1__leaf__04501_ VGND VGND VPWR VPWR net134 sky130_fd_sc_hd__inv_2
X_05180_ _02418_ VGND VGND VPWR VPWR _01759_ sky130_fd_sc_hd__clkbuf_1
XFILLER_50_3 VGND VGND VPWR VPWR sky130_fd_sc_hd__fill_2
XFILLER_97_721 VGND VGND VPWR VPWR sky130_fd_sc_hd__decap_6
XFILLER_111_564 VGND VGND VPWR VPWR sky130_fd_sc_hd__decap_4
XFILLER_96_253 VGND VGND VPWR VPWR sky130_fd_sc_hd__fill_2
Xclkbuf_0__04456_ _04456_ VGND VGND VPWR VPWR clknet_0__04456_ sky130_fd_sc_hd__clkbuf_16
X_07821_ _03205_ _04284_ _04286_ _03216_ VGND VGND VPWR VPWR _04287_ sky130_fd_sc_hd__a31o_1
X_07752_ _03196_ _04221_ _03265_ VGND VGND VPWR VPWR _04222_ sky130_fd_sc_hd__o21a_1
X_04964_ _02307_ VGND VGND VPWR VPWR _01864_ sky130_fd_sc_hd__clkbuf_1
X_06703_ rf\[20\]\[13\] rf\[21\]\[13\] rf\[22\]\[13\] rf\[23\]\[13\] _03198_ _03199_
+ VGND VGND VPWR VPWR _03224_ sky130_fd_sc_hd__mux4_1
XFILLER_65_673 VGND VGND VPWR VPWR sky130_ef_sc_hd__decap_12
XFILLER_64_150 VGND VGND VPWR VPWR sky130_fd_sc_hd__decap_6
X_04895_ _02271_ VGND VGND VPWR VPWR _01897_ sky130_fd_sc_hd__clkbuf_1
XFILLER_37_375 VGND VGND VPWR VPWR sky130_fd_sc_hd__decap_8
X_07683_ rf\[12\]\[29\] rf\[13\]\[29\] rf\[14\]\[29\] rf\[15\]\[29\] _03599_ _03600_
+ VGND VGND VPWR VPWR _04156_ sky130_fd_sc_hd__mux4_1
X_08384__430 clknet_1_1__leaf__04466_ VGND VGND VPWR VPWR net542 sky130_fd_sc_hd__inv_2
X_09422_ net520 _01394_ VGND VGND VPWR VPWR rf\[20\]\[0\] sky130_fd_sc_hd__dfxtp_1
XFILLER_92_492 VGND VGND VPWR VPWR sky130_fd_sc_hd__decap_6
XFILLER_25_559 VGND VGND VPWR VPWR sky130_fd_sc_hd__fill_1
X_06634_ rf\[0\]\[15\] VGND VGND VPWR VPWR _03171_ sky130_fd_sc_hd__clkbuf_1
X_09353_ net451 _01325_ VGND VGND VPWR VPWR rf\[17\]\[27\] sky130_fd_sc_hd__dfxtp_1
X_06565_ _03136_ VGND VGND VPWR VPWR _01092_ sky130_fd_sc_hd__clkbuf_1
XFILLER_40_529 VGND VGND VPWR VPWR sky130_fd_sc_hd__decap_3
X_05516_ _02092_ rf\[26\]\[11\] _02572_ VGND VGND VPWR VPWR _02593_ sky130_fd_sc_hd__mux2_1
X_09284_ net382 _01256_ VGND VGND VPWR VPWR rf\[15\]\[22\] sky130_fd_sc_hd__dfxtp_1
X_06496_ rf\[11\]\[19\] net21 _03088_ VGND VGND VPWR VPWR _03101_ sky130_fd_sc_hd__mux2_1
X_05447_ _02557_ VGND VGND VPWR VPWR _01631_ sky130_fd_sc_hd__clkbuf_1
XFILLER_60_29 VGND VGND VPWR VPWR sky130_fd_sc_hd__fill_1
XFILLER_119_653 VGND VGND VPWR VPWR sky130_ef_sc_hd__decap_12
XFILLER_118_141 VGND VGND VPWR VPWR sky130_fd_sc_hd__decap_4
X_05378_ _02521_ VGND VGND VPWR VPWR _01664_ sky130_fd_sc_hd__clkbuf_1
XFILLER_119_697 VGND VGND VPWR VPWR sky130_ef_sc_hd__decap_12
XFILLER_106_303 VGND VGND VPWR VPWR sky130_fd_sc_hd__fill_2
X_07117_ _03603_ _03618_ VGND VGND VPWR VPWR _03619_ sky130_fd_sc_hd__or2_1
XFILLER_109_67 VGND VGND VPWR VPWR sky130_fd_sc_hd__fill_1
X_08811__834 clknet_1_1__leaf__04489_ VGND VGND VPWR VPWR net946 sky130_fd_sc_hd__inv_2
X_07048_ _03242_ _03551_ VGND VGND VPWR VPWR _03552_ sky130_fd_sc_hd__or2_1
XFILLER_125_33 VGND VGND VPWR VPWR sky130_fd_sc_hd__fill_1
XFILLER_121_328 VGND VGND VPWR VPWR sky130_fd_sc_hd__decap_8
XFILLER_87_275 VGND VGND VPWR VPWR sky130_fd_sc_hd__decap_4
XFILLER_90_407 VGND VGND VPWR VPWR sky130_fd_sc_hd__fill_1
XFILLER_16_515 VGND VGND VPWR VPWR sky130_fd_sc_hd__fill_1
X_08547__584 clknet_1_1__leaf__04475_ VGND VGND VPWR VPWR net696 sky130_fd_sc_hd__inv_2
XFILLER_43_323 VGND VGND VPWR VPWR sky130_ef_sc_hd__decap_12
XFILLER_70_175 VGND VGND VPWR VPWR sky130_fd_sc_hd__fill_1
Xclkbuf_1_0__f__04445_ clknet_0__04445_ VGND VGND VPWR VPWR clknet_1_0__leaf__04445_
+ sky130_fd_sc_hd__clkbuf_16
XFILLER_70_197 VGND VGND VPWR VPWR sky130_fd_sc_hd__decap_8
XFILLER_34_85 VGND VGND VPWR VPWR sky130_ef_sc_hd__decap_12
XFILLER_8_725 VGND VGND VPWR VPWR sky130_ef_sc_hd__decap_12
XFILLER_109_141 VGND VGND VPWR VPWR sky130_ef_sc_hd__decap_12
XFILLER_125_623 VGND VGND VPWR VPWR sky130_fd_sc_hd__decap_8
XFILLER_50_62 VGND VGND VPWR VPWR sky130_fd_sc_hd__decap_4
XFILLER_125_645 VGND VGND VPWR VPWR sky130_fd_sc_hd__decap_8
XFILLER_125_678 VGND VGND VPWR VPWR sky130_ef_sc_hd__decap_12
XFILLER_112_317 VGND VGND VPWR VPWR sky130_fd_sc_hd__fill_1
XFILLER_112_306 VGND VGND VPWR VPWR sky130_fd_sc_hd__fill_2
XTAP_507 VGND VPWR sky130_fd_sc_hd__tapvpwrvgnd_1
X_08253__305 clknet_1_1__leaf__04460_ VGND VGND VPWR VPWR net417 sky130_fd_sc_hd__inv_2
XTAP_529 VGND VPWR sky130_fd_sc_hd__tapvpwrvgnd_1
XTAP_518 VGND VPWR sky130_fd_sc_hd__tapvpwrvgnd_1
XFILLER_94_713 VGND VGND VPWR VPWR sky130_ef_sc_hd__decap_12
XFILLER_46_150 VGND VGND VPWR VPWR sky130_ef_sc_hd__decap_12
X_04680_ rf\[19\]\[28\] _02058_ _02154_ VGND VGND VPWR VPWR _02158_ sky130_fd_sc_hd__mux2_1
XFILLER_61_186 VGND VGND VPWR VPWR sky130_ef_sc_hd__decap_12
XTAP_1290 VGND VPWR sky130_fd_sc_hd__tapvpwrvgnd_1
X_06350_ _03025_ VGND VGND VPWR VPWR _01196_ sky130_fd_sc_hd__clkbuf_1
X_05301_ _02481_ VGND VGND VPWR VPWR _01701_ sky130_fd_sc_hd__clkbuf_1
X_06281_ _02060_ rf\[14\]\[27\] _02985_ VGND VGND VPWR VPWR _02990_ sky130_fd_sc_hd__mux2_1
X_05232_ _02074_ rf\[30\]\[20\] _02434_ VGND VGND VPWR VPWR _02446_ sky130_fd_sc_hd__mux2_1
X_08340__388 clknet_1_1__leaf__04464_ VGND VGND VPWR VPWR net500 sky130_fd_sc_hd__inv_2
XFILLER_116_645 VGND VGND VPWR VPWR sky130_ef_sc_hd__decap_12
XFILLER_115_111 VGND VGND VPWR VPWR sky130_fd_sc_hd__fill_1
X_05163_ rf\[9\]\[21\] _02072_ _02399_ VGND VGND VPWR VPWR _02410_ sky130_fd_sc_hd__mux2_1
XFILLER_115_166 VGND VGND VPWR VPWR sky130_fd_sc_hd__fill_2
X_09971_ net1069 _01943_ VGND VGND VPWR VPWR rf\[4\]\[5\] sky130_fd_sc_hd__dfxtp_1
X_05094_ _02374_ VGND VGND VPWR VPWR _01801_ sky130_fd_sc_hd__clkbuf_1
X_08416__459 clknet_1_1__leaf__04469_ VGND VGND VPWR VPWR net571 sky130_fd_sc_hd__inv_2
XFILLER_103_328 VGND VGND VPWR VPWR sky130_fd_sc_hd__decap_8
X_08853_ clknet_1_0__leaf__04490_ VGND VGND VPWR VPWR _04493_ sky130_fd_sc_hd__buf_1
X_05996_ rf\[1\]\[4\] _02106_ _02813_ VGND VGND VPWR VPWR _02842_ sky130_fd_sc_hd__mux2_1
X_07804_ _03261_ _04270_ VGND VGND VPWR VPWR _04271_ sky130_fd_sc_hd__or2_1
XFILLER_38_640 VGND VGND VPWR VPWR sky130_fd_sc_hd__decap_4
X_07735_ _03608_ _04196_ _04205_ _03612_ VGND VGND VPWR VPWR net105 sky130_fd_sc_hd__o211a_2
X_04947_ rf\[10\]\[30\] _02054_ _02297_ VGND VGND VPWR VPWR _02299_ sky130_fd_sc_hd__mux2_1
X_08880__898 clknet_1_1__leaf__04494_ VGND VGND VPWR VPWR net1010 sky130_fd_sc_hd__inv_2
XFILLER_25_301 VGND VGND VPWR VPWR sky130_ef_sc_hd__decap_12
X_04878_ rf\[6\]\[31\] _02048_ _02262_ VGND VGND VPWR VPWR _02263_ sky130_fd_sc_hd__mux2_1
X_07666_ _03699_ _04139_ _03682_ VGND VGND VPWR VPWR _04140_ sky130_fd_sc_hd__o21a_1
X_09405_ net503 _01377_ VGND VGND VPWR VPWR rf\[1\]\[15\] sky130_fd_sc_hd__dfxtp_1
X_07597_ rf\[28\]\[24\] rf\[29\]\[24\] rf\[30\]\[24\] rf\[31\]\[24\] _03599_ _03600_
+ VGND VGND VPWR VPWR _04075_ sky130_fd_sc_hd__mux4_2
X_06617_ _03162_ VGND VGND VPWR VPWR _01066_ sky130_fd_sc_hd__clkbuf_1
X_09336_ net434 _01308_ VGND VGND VPWR VPWR rf\[17\]\[10\] sky130_fd_sc_hd__dfxtp_1
X_06548_ _02062_ rf\[29\]\[26\] _03122_ VGND VGND VPWR VPWR _03128_ sky130_fd_sc_hd__mux2_1
XFILLER_21_551 VGND VGND VPWR VPWR sky130_fd_sc_hd__decap_8
XFILLER_21_573 VGND VGND VPWR VPWR sky130_ef_sc_hd__decap_12
X_09267_ net365 _01239_ VGND VGND VPWR VPWR rf\[15\]\[5\] sky130_fd_sc_hd__dfxtp_1
X_06479_ _03092_ VGND VGND VPWR VPWR _01134_ sky130_fd_sc_hd__clkbuf_1
X_09198_ net296 _01170_ VGND VGND VPWR VPWR rf\[13\]\[0\] sky130_fd_sc_hd__dfxtp_1
X_08276__327 clknet_1_1__leaf__04461_ VGND VGND VPWR VPWR net439 sky130_fd_sc_hd__inv_2
X_08149_ clknet_1_1__leaf__04446_ VGND VGND VPWR VPWR _04454_ sky130_fd_sc_hd__buf_1