**************************************************
* OpenRAM generated memory.
* Words: 512
* Data bits: 32
* Banks: 1
* Column mux: 4:1
* Trimmed: False
* LVS: True
**************************************************
* Copyright 2020 The SkyWater PDK Authors
*
* Licensed under the Apache License, Version 2.0 (the "License");
* you may not use this file except in compliance with the License.
* You may obtain a copy of the License at
*
*     https://www.apache.org/licenses/LICENSE-2.0
*
* Unless required by applicable law or agreed to in writing, software
* distributed under the License is distributed on an "AS IS" BASIS,
* WITHOUT WARRANTIES OR CONDITIONS OF ANY KIND, either express or implied.
* See the License for the specific language governing permissions and
* limitations under the License.
*
* SPDX-License-Identifier: Apache-2.0

.SUBCKT sky130_fd_bd_sram__openram_dp_cell BL0 BR0 BL1 BR1 WL0 WL1 VDD GND

X0 Q WL1 BL1 GND sky130_fd_pr__special_nfet_latch W=0.21u L=0.15u m=1
X4 Q_bar WL1 BR1 GND sky130_fd_pr__special_nfet_latch W=0.21u L=0.15u m=1

X3 BL0 WL0 Q GND sky130_fd_pr__special_nfet_latch W=0.21u L=0.15u m=1
X7 BR0 WL0 Q_bar GND sky130_fd_pr__special_nfet_latch W=0.21u L=0.15u m=1

* Bitcell Core
X1 GND Q_bar Q GND sky130_fd_pr__special_nfet_latch W=0.21u L=0.15u m=1
X2 GND Q_bar Q GND sky130_fd_pr__special_nfet_latch W=0.21u L=0.15u m=1
X9 Q Q_bar VDD VDD sky130_fd_pr__special_pfet_pass W=0.14u L=0.15u m=1

X5 GND Q Q_bar GND sky130_fd_pr__special_nfet_latch W=0.21u L=0.15u m=1
X6 GND Q Q_bar GND sky130_fd_pr__special_nfet_latch W=0.21u L=0.15u m=1
X8 VDD Q Q_bar VDD sky130_fd_pr__special_pfet_pass W=0.14u L=0.15u m=1

* tap under poly
X10 GND GND BL1 GND sky130_fd_pr__special_nfet_latch w=0.21u l=0.08u m=1
X11 GND GND BR1 GND sky130_fd_pr__special_nfet_latch w=0.21u l=0.08u m=1

* drainOnly PMOS
X12 Q_bar WL1 Q_bar VDD sky130_fd_pr__special_pfet_pass W=0.07u L=0.15u m=1
X13 Q WL0 Q VDD sky130_fd_pr__special_pfet_pass W=0.07u L=0.15u m=1

* drainOnly NMOS
X14 GND GND BL1 GND sky130_fd_pr__special_nfet_latch w=0.21u l=0.08u m=1
X15 GND GND BR1 GND sky130_fd_pr__special_nfet_latch w=0.21u l=0.08u m=1


.ENDS

.SUBCKT bitcell_array bl_0_0 bl_1_0 br_0_0 br_1_0 bl_0_1 bl_1_1 br_0_1 br_1_1 bl_0_2 bl_1_2 br_0_2 br_1_2 bl_0_3 bl_1_3 br_0_3 br_1_3 bl_0_4 bl_1_4 br_0_4 br_1_4 bl_0_5 bl_1_5 br_0_5 br_1_5 bl_0_6 bl_1_6 br_0_6 br_1_6 bl_0_7 bl_1_7 br_0_7 br_1_7 bl_0_8 bl_1_8 br_0_8 br_1_8 bl_0_9 bl_1_9 br_0_9 br_1_9 bl_0_10 bl_1_10 br_0_10 br_1_10 bl_0_11 bl_1_11 br_0_11 br_1_11 bl_0_12 bl_1_12 br_0_12 br_1_12 bl_0_13 bl_1_13 br_0_13 br_1_13 bl_0_14 bl_1_14 br_0_14 br_1_14 bl_0_15 bl_1_15 br_0_15 br_1_15 bl_0_16 bl_1_16 br_0_16 br_1_16 bl_0_17 bl_1_17 br_0_17 br_1_17 bl_0_18 bl_1_18 br_0_18 br_1_18 bl_0_19 bl_1_19 br_0_19 br_1_19 bl_0_20 bl_1_20 br_0_20 br_1_20 bl_0_21 bl_1_21 br_0_21 br_1_21 bl_0_22 bl_1_22 br_0_22 br_1_22 bl_0_23 bl_1_23 br_0_23 br_1_23 bl_0_24 bl_1_24 br_0_24 br_1_24 bl_0_25 bl_1_25 br_0_25 br_1_25 bl_0_26 bl_1_26 br_0_26 br_1_26 bl_0_27 bl_1_27 br_0_27 br_1_27 bl_0_28 bl_1_28 br_0_28 br_1_28 bl_0_29 bl_1_29 br_0_29 br_1_29 bl_0_30 bl_1_30 br_0_30 br_1_30 bl_0_31 bl_1_31 br_0_31 br_1_31 bl_0_32 bl_1_32 br_0_32 br_1_32 bl_0_33 bl_1_33 br_0_33 br_1_33 bl_0_34 bl_1_34 br_0_34 br_1_34 bl_0_35 bl_1_35 br_0_35 br_1_35 bl_0_36 bl_1_36 br_0_36 br_1_36 bl_0_37 bl_1_37 br_0_37 br_1_37 bl_0_38 bl_1_38 br_0_38 br_1_38 bl_0_39 bl_1_39 br_0_39 br_1_39 bl_0_40 bl_1_40 br_0_40 br_1_40 bl_0_41 bl_1_41 br_0_41 br_1_41 bl_0_42 bl_1_42 br_0_42 br_1_42 bl_0_43 bl_1_43 br_0_43 br_1_43 bl_0_44 bl_1_44 br_0_44 br_1_44 bl_0_45 bl_1_45 br_0_45 br_1_45 bl_0_46 bl_1_46 br_0_46 br_1_46 bl_0_47 bl_1_47 br_0_47 br_1_47 bl_0_48 bl_1_48 br_0_48 br_1_48 bl_0_49 bl_1_49 br_0_49 br_1_49 bl_0_50 bl_1_50 br_0_50 br_1_50 bl_0_51 bl_1_51 br_0_51 br_1_51 bl_0_52 bl_1_52 br_0_52 br_1_52 bl_0_53 bl_1_53 br_0_53 br_1_53 bl_0_54 bl_1_54 br_0_54 br_1_54 bl_0_55 bl_1_55 br_0_55 br_1_55 bl_0_56 bl_1_56 br_0_56 br_1_56 bl_0_57 bl_1_57 br_0_57 br_1_57 bl_0_58 bl_1_58 br_0_58 br_1_58 bl_0_59 bl_1_59 br_0_59 br_1_59 bl_0_60 bl_1_60 br_0_60 br_1_60 bl_0_61 bl_1_61 br_0_61 br_1_61 bl_0_62 bl_1_62 br_0_62 br_1_62 bl_0_63 bl_1_63 br_0_63 br_1_63 bl_0_64 bl_1_64 br_0_64 br_1_64 bl_0_65 bl_1_65 br_0_65 br_1_65 bl_0_66 bl_1_66 br_0_66 br_1_66 bl_0_67 bl_1_67 br_0_67 br_1_67 bl_0_68 bl_1_68 br_0_68 br_1_68 bl_0_69 bl_1_69 br_0_69 br_1_69 bl_0_70 bl_1_70 br_0_70 br_1_70 bl_0_71 bl_1_71 br_0_71 br_1_71 bl_0_72 bl_1_72 br_0_72 br_1_72 bl_0_73 bl_1_73 br_0_73 br_1_73 bl_0_74 bl_1_74 br_0_74 br_1_74 bl_0_75 bl_1_75 br_0_75 br_1_75 bl_0_76 bl_1_76 br_0_76 br_1_76 bl_0_77 bl_1_77 br_0_77 br_1_77 bl_0_78 bl_1_78 br_0_78 br_1_78 bl_0_79 bl_1_79 br_0_79 br_1_79 bl_0_80 bl_1_80 br_0_80 br_1_80 bl_0_81 bl_1_81 br_0_81 br_1_81 bl_0_82 bl_1_82 br_0_82 br_1_82 bl_0_83 bl_1_83 br_0_83 br_1_83 bl_0_84 bl_1_84 br_0_84 br_1_84 bl_0_85 bl_1_85 br_0_85 br_1_85 bl_0_86 bl_1_86 br_0_86 br_1_86 bl_0_87 bl_1_87 br_0_87 br_1_87 bl_0_88 bl_1_88 br_0_88 br_1_88 bl_0_89 bl_1_89 br_0_89 br_1_89 bl_0_90 bl_1_90 br_0_90 br_1_90 bl_0_91 bl_1_91 br_0_91 br_1_91 bl_0_92 bl_1_92 br_0_92 br_1_92 bl_0_93 bl_1_93 br_0_93 br_1_93 bl_0_94 bl_1_94 br_0_94 br_1_94 bl_0_95 bl_1_95 br_0_95 br_1_95 bl_0_96 bl_1_96 br_0_96 br_1_96 bl_0_97 bl_1_97 br_0_97 br_1_97 bl_0_98 bl_1_98 br_0_98 br_1_98 bl_0_99 bl_1_99 br_0_99 br_1_99 bl_0_100 bl_1_100 br_0_100 br_1_100 bl_0_101 bl_1_101 br_0_101 br_1_101 bl_0_102 bl_1_102 br_0_102 br_1_102 bl_0_103 bl_1_103 br_0_103 br_1_103 bl_0_104 bl_1_104 br_0_104 br_1_104 bl_0_105 bl_1_105 br_0_105 br_1_105 bl_0_106 bl_1_106 br_0_106 br_1_106 bl_0_107 bl_1_107 br_0_107 br_1_107 bl_0_108 bl_1_108 br_0_108 br_1_108 bl_0_109 bl_1_109 br_0_109 br_1_109 bl_0_110 bl_1_110 br_0_110 br_1_110 bl_0_111 bl_1_111 br_0_111 br_1_111 bl_0_112 bl_1_112 br_0_112 br_1_112 bl_0_113 bl_1_113 br_0_113 br_1_113 bl_0_114 bl_1_114 br_0_114 br_1_114 bl_0_115 bl_1_115 br_0_115 br_1_115 bl_0_116 bl_1_116 br_0_116 br_1_116 bl_0_117 bl_1_117 br_0_117 br_1_117 bl_0_118 bl_1_118 br_0_118 br_1_118 bl_0_119 bl_1_119 br_0_119 br_1_119 bl_0_120 bl_1_120 br_0_120 br_1_120 bl_0_121 bl_1_121 br_0_121 br_1_121 bl_0_122 bl_1_122 br_0_122 br_1_122 bl_0_123 bl_1_123 br_0_123 br_1_123 bl_0_124 bl_1_124 br_0_124 br_1_124 bl_0_125 bl_1_125 br_0_125 br_1_125 bl_0_126 bl_1_126 br_0_126 br_1_126 bl_0_127 bl_1_127 br_0_127 br_1_127 wl_0_0 wl_1_0 wl_0_1 wl_1_1 wl_0_2 wl_1_2 wl_0_3 wl_1_3 wl_0_4 wl_1_4 wl_0_5 wl_1_5 wl_0_6 wl_1_6 wl_0_7 wl_1_7 wl_0_8 wl_1_8 wl_0_9 wl_1_9 wl_0_10 wl_1_10 wl_0_11 wl_1_11 wl_0_12 wl_1_12 wl_0_13 wl_1_13 wl_0_14 wl_1_14 wl_0_15 wl_1_15 wl_0_16 wl_1_16 wl_0_17 wl_1_17 wl_0_18 wl_1_18 wl_0_19 wl_1_19 wl_0_20 wl_1_20 wl_0_21 wl_1_21 wl_0_22 wl_1_22 wl_0_23 wl_1_23 wl_0_24 wl_1_24 wl_0_25 wl_1_25 wl_0_26 wl_1_26 wl_0_27 wl_1_27 wl_0_28 wl_1_28 wl_0_29 wl_1_29 wl_0_30 wl_1_30 wl_0_31 wl_1_31 wl_0_32 wl_1_32 wl_0_33 wl_1_33 wl_0_34 wl_1_34 wl_0_35 wl_1_35 wl_0_36 wl_1_36 wl_0_37 wl_1_37 wl_0_38 wl_1_38 wl_0_39 wl_1_39 wl_0_40 wl_1_40 wl_0_41 wl_1_41 wl_0_42 wl_1_42 wl_0_43 wl_1_43 wl_0_44 wl_1_44 wl_0_45 wl_1_45 wl_0_46 wl_1_46 wl_0_47 wl_1_47 wl_0_48 wl_1_48 wl_0_49 wl_1_49 wl_0_50 wl_1_50 wl_0_51 wl_1_51 wl_0_52 wl_1_52 wl_0_53 wl_1_53 wl_0_54 wl_1_54 wl_0_55 wl_1_55 wl_0_56 wl_1_56 wl_0_57 wl_1_57 wl_0_58 wl_1_58 wl_0_59 wl_1_59 wl_0_60 wl_1_60 wl_0_61 wl_1_61 wl_0_62 wl_1_62 wl_0_63 wl_1_63 wl_0_64 wl_1_64 wl_0_65 wl_1_65 wl_0_66 wl_1_66 wl_0_67 wl_1_67 wl_0_68 wl_1_68 wl_0_69 wl_1_69 wl_0_70 wl_1_70 wl_0_71 wl_1_71 wl_0_72 wl_1_72 wl_0_73 wl_1_73 wl_0_74 wl_1_74 wl_0_75 wl_1_75 wl_0_76 wl_1_76 wl_0_77 wl_1_77 wl_0_78 wl_1_78 wl_0_79 wl_1_79 wl_0_80 wl_1_80 wl_0_81 wl_1_81 wl_0_82 wl_1_82 wl_0_83 wl_1_83 wl_0_84 wl_1_84 wl_0_85 wl_1_85 wl_0_86 wl_1_86 wl_0_87 wl_1_87 wl_0_88 wl_1_88 wl_0_89 wl_1_89 wl_0_90 wl_1_90 wl_0_91 wl_1_91 wl_0_92 wl_1_92 wl_0_93 wl_1_93 wl_0_94 wl_1_94 wl_0_95 wl_1_95 wl_0_96 wl_1_96 wl_0_97 wl_1_97 wl_0_98 wl_1_98 wl_0_99 wl_1_99 wl_0_100 wl_1_100 wl_0_101 wl_1_101 wl_0_102 wl_1_102 wl_0_103 wl_1_103 wl_0_104 wl_1_104 wl_0_105 wl_1_105 wl_0_106 wl_1_106 wl_0_107 wl_1_107 wl_0_108 wl_1_108 wl_0_109 wl_1_109 wl_0_110 wl_1_110 wl_0_111 wl_1_111 wl_0_112 wl_1_112 wl_0_113 wl_1_113 wl_0_114 wl_1_114 wl_0_115 wl_1_115 wl_0_116 wl_1_116 wl_0_117 wl_1_117 wl_0_118 wl_1_118 wl_0_119 wl_1_119 wl_0_120 wl_1_120 wl_0_121 wl_1_121 wl_0_122 wl_1_122 wl_0_123 wl_1_123 wl_0_124 wl_1_124 wl_0_125 wl_1_125 wl_0_126 wl_1_126 wl_0_127 wl_1_127 vdd gnd
*.PININFO bl_0_0:B bl_1_0:B br_0_0:B br_1_0:B bl_0_1:B bl_1_1:B br_0_1:B br_1_1:B bl_0_2:B bl_1_2:B br_0_2:B br_1_2:B bl_0_3:B bl_1_3:B br_0_3:B br_1_3:B bl_0_4:B bl_1_4:B br_0_4:B br_1_4:B bl_0_5:B bl_1_5:B br_0_5:B br_1_5:B bl_0_6:B bl_1_6:B br_0_6:B br_1_6:B bl_0_7:B bl_1_7:B br_0_7:B br_1_7:B bl_0_8:B bl_1_8:B br_0_8:B br_1_8:B bl_0_9:B bl_1_9:B br_0_9:B br_1_9:B bl_0_10:B bl_1_10:B br_0_10:B br_1_10:B bl_0_11:B bl_1_11:B br_0_11:B br_1_11:B bl_0_12:B bl_1_12:B br_0_12:B br_1_12:B bl_0_13:B bl_1_13:B br_0_13:B br_1_13:B bl_0_14:B bl_1_14:B br_0_14:B br_1_14:B bl_0_15:B bl_1_15:B br_0_15:B br_1_15:B bl_0_16:B bl_1_16:B br_0_16:B br_1_16:B bl_0_17:B bl_1_17:B br_0_17:B br_1_17:B bl_0_18:B bl_1_18:B br_0_18:B br_1_18:B bl_0_19:B bl_1_19:B br_0_19:B br_1_19:B bl_0_20:B bl_1_20:B br_0_20:B br_1_20:B bl_0_21:B bl_1_21:B br_0_21:B br_1_21:B bl_0_22:B bl_1_22:B br_0_22:B br_1_22:B bl_0_23:B bl_1_23:B br_0_23:B br_1_23:B bl_0_24:B bl_1_24:B br_0_24:B br_1_24:B bl_0_25:B bl_1_25:B br_0_25:B br_1_25:B bl_0_26:B bl_1_26:B br_0_26:B br_1_26:B bl_0_27:B bl_1_27:B br_0_27:B br_1_27:B bl_0_28:B bl_1_28:B br_0_28:B br_1_28:B bl_0_29:B bl_1_29:B br_0_29:B br_1_29:B bl_0_30:B bl_1_30:B br_0_30:B br_1_30:B bl_0_31:B bl_1_31:B br_0_31:B br_1_31:B bl_0_32:B bl_1_32:B br_0_32:B br_1_32:B bl_0_33:B bl_1_33:B br_0_33:B br_1_33:B bl_0_34:B bl_1_34:B br_0_34:B br_1_34:B bl_0_35:B bl_1_35:B br_0_35:B br_1_35:B bl_0_36:B bl_1_36:B br_0_36:B br_1_36:B bl_0_37:B bl_1_37:B br_0_37:B br_1_37:B bl_0_38:B bl_1_38:B br_0_38:B br_1_38:B bl_0_39:B bl_1_39:B br_0_39:B br_1_39:B bl_0_40:B bl_1_40:B br_0_40:B br_1_40:B bl_0_41:B bl_1_41:B br_0_41:B br_1_41:B bl_0_42:B bl_1_42:B br_0_42:B br_1_42:B bl_0_43:B bl_1_43:B br_0_43:B br_1_43:B bl_0_44:B bl_1_44:B br_0_44:B br_1_44:B bl_0_45:B bl_1_45:B br_0_45:B br_1_45:B bl_0_46:B bl_1_46:B br_0_46:B br_1_46:B bl_0_47:B bl_1_47:B br_0_47:B br_1_47:B bl_0_48:B bl_1_48:B br_0_48:B br_1_48:B bl_0_49:B bl_1_49:B br_0_49:B br_1_49:B bl_0_50:B bl_1_50:B br_0_50:B br_1_50:B bl_0_51:B bl_1_51:B br_0_51:B br_1_51:B bl_0_52:B bl_1_52:B br_0_52:B br_1_52:B bl_0_53:B bl_1_53:B br_0_53:B br_1_53:B bl_0_54:B bl_1_54:B br_0_54:B br_1_54:B bl_0_55:B bl_1_55:B br_0_55:B br_1_55:B bl_0_56:B bl_1_56:B br_0_56:B br_1_56:B bl_0_57:B bl_1_57:B br_0_57:B br_1_57:B bl_0_58:B bl_1_58:B br_0_58:B br_1_58:B bl_0_59:B bl_1_59:B br_0_59:B br_1_59:B bl_0_60:B bl_1_60:B br_0_60:B br_1_60:B bl_0_61:B bl_1_61:B br_0_61:B br_1_61:B bl_0_62:B bl_1_62:B br_0_62:B br_1_62:B bl_0_63:B bl_1_63:B br_0_63:B br_1_63:B bl_0_64:B bl_1_64:B br_0_64:B br_1_64:B bl_0_65:B bl_1_65:B br_0_65:B br_1_65:B bl_0_66:B bl_1_66:B br_0_66:B br_1_66:B bl_0_67:B bl_1_67:B br_0_67:B br_1_67:B bl_0_68:B bl_1_68:B br_0_68:B br_1_68:B bl_0_69:B bl_1_69:B br_0_69:B br_1_69:B bl_0_70:B bl_1_70:B br_0_70:B br_1_70:B bl_0_71:B bl_1_71:B br_0_71:B br_1_71:B bl_0_72:B bl_1_72:B br_0_72:B br_1_72:B bl_0_73:B bl_1_73:B br_0_73:B br_1_73:B bl_0_74:B bl_1_74:B br_0_74:B br_1_74:B bl_0_75:B bl_1_75:B br_0_75:B br_1_75:B bl_0_76:B bl_1_76:B br_0_76:B br_1_76:B bl_0_77:B bl_1_77:B br_0_77:B br_1_77:B bl_0_78:B bl_1_78:B br_0_78:B br_1_78:B bl_0_79:B bl_1_79:B br_0_79:B br_1_79:B bl_0_80:B bl_1_80:B br_0_80:B br_1_80:B bl_0_81:B bl_1_81:B br_0_81:B br_1_81:B bl_0_82:B bl_1_82:B br_0_82:B br_1_82:B bl_0_83:B bl_1_83:B br_0_83:B br_1_83:B bl_0_84:B bl_1_84:B br_0_84:B br_1_84:B bl_0_85:B bl_1_85:B br_0_85:B br_1_85:B bl_0_86:B bl_1_86:B br_0_86:B br_1_86:B bl_0_87:B bl_1_87:B br_0_87:B br_1_87:B bl_0_88:B bl_1_88:B br_0_88:B br_1_88:B bl_0_89:B bl_1_89:B br_0_89:B br_1_89:B bl_0_90:B bl_1_90:B br_0_90:B br_1_90:B bl_0_91:B bl_1_91:B br_0_91:B br_1_91:B bl_0_92:B bl_1_92:B br_0_92:B br_1_92:B bl_0_93:B bl_1_93:B br_0_93:B br_1_93:B bl_0_94:B bl_1_94:B br_0_94:B br_1_94:B bl_0_95:B bl_1_95:B br_0_95:B br_1_95:B bl_0_96:B bl_1_96:B br_0_96:B br_1_96:B bl_0_97:B bl_1_97:B br_0_97:B br_1_97:B bl_0_98:B bl_1_98:B br_0_98:B br_1_98:B bl_0_99:B bl_1_99:B br_0_99:B br_1_99:B bl_0_100:B bl_1_100:B br_0_100:B br_1_100:B bl_0_101:B bl_1_101:B br_0_101:B br_1_101:B bl_0_102:B bl_1_102:B br_0_102:B br_1_102:B bl_0_103:B bl_1_103:B br_0_103:B br_1_103:B bl_0_104:B bl_1_104:B br_0_104:B br_1_104:B bl_0_105:B bl_1_105:B br_0_105:B br_1_105:B bl_0_106:B bl_1_106:B br_0_106:B br_1_106:B bl_0_107:B bl_1_107:B br_0_107:B br_1_107:B bl_0_108:B bl_1_108:B br_0_108:B br_1_108:B bl_0_109:B bl_1_109:B br_0_109:B br_1_109:B bl_0_110:B bl_1_110:B br_0_110:B br_1_110:B bl_0_111:B bl_1_111:B br_0_111:B br_1_111:B bl_0_112:B bl_1_112:B br_0_112:B br_1_112:B bl_0_113:B bl_1_113:B br_0_113:B br_1_113:B bl_0_114:B bl_1_114:B br_0_114:B br_1_114:B bl_0_115:B bl_1_115:B br_0_115:B br_1_115:B bl_0_116:B bl_1_116:B br_0_116:B br_1_116:B bl_0_117:B bl_1_117:B br_0_117:B br_1_117:B bl_0_118:B bl_1_118:B br_0_118:B br_1_118:B bl_0_119:B bl_1_119:B br_0_119:B br_1_119:B bl_0_120:B bl_1_120:B br_0_120:B br_1_120:B bl_0_121:B bl_1_121:B br_0_121:B br_1_121:B bl_0_122:B bl_1_122:B br_0_122:B br_1_122:B bl_0_123:B bl_1_123:B br_0_123:B br_1_123:B bl_0_124:B bl_1_124:B br_0_124:B br_1_124:B bl_0_125:B bl_1_125:B br_0_125:B br_1_125:B bl_0_126:B bl_1_126:B br_0_126:B br_1_126:B bl_0_127:B bl_1_127:B br_0_127:B br_1_127:B wl_0_0:I wl_1_0:I wl_0_1:I wl_1_1:I wl_0_2:I wl_1_2:I wl_0_3:I wl_1_3:I wl_0_4:I wl_1_4:I wl_0_5:I wl_1_5:I wl_0_6:I wl_1_6:I wl_0_7:I wl_1_7:I wl_0_8:I wl_1_8:I wl_0_9:I wl_1_9:I wl_0_10:I wl_1_10:I wl_0_11:I wl_1_11:I wl_0_12:I wl_1_12:I wl_0_13:I wl_1_13:I wl_0_14:I wl_1_14:I wl_0_15:I wl_1_15:I wl_0_16:I wl_1_16:I wl_0_17:I wl_1_17:I wl_0_18:I wl_1_18:I wl_0_19:I wl_1_19:I wl_0_20:I wl_1_20:I wl_0_21:I wl_1_21:I wl_0_22:I wl_1_22:I wl_0_23:I wl_1_23:I wl_0_24:I wl_1_24:I wl_0_25:I wl_1_25:I wl_0_26:I wl_1_26:I wl_0_27:I wl_1_27:I wl_0_28:I wl_1_28:I wl_0_29:I wl_1_29:I wl_0_30:I wl_1_30:I wl_0_31:I wl_1_31:I wl_0_32:I wl_1_32:I wl_0_33:I wl_1_33:I wl_0_34:I wl_1_34:I wl_0_35:I wl_1_35:I wl_0_36:I wl_1_36:I wl_0_37:I wl_1_37:I wl_0_38:I wl_1_38:I wl_0_39:I wl_1_39:I wl_0_40:I wl_1_40:I wl_0_41:I wl_1_41:I wl_0_42:I wl_1_42:I wl_0_43:I wl_1_43:I wl_0_44:I wl_1_44:I wl_0_45:I wl_1_45:I wl_0_46:I wl_1_46:I wl_0_47:I wl_1_47:I wl_0_48:I wl_1_48:I wl_0_49:I wl_1_49:I wl_0_50:I wl_1_50:I wl_0_51:I wl_1_51:I wl_0_52:I wl_1_52:I wl_0_53:I wl_1_53:I wl_0_54:I wl_1_54:I wl_0_55:I wl_1_55:I wl_0_56:I wl_1_56:I wl_0_57:I wl_1_57:I wl_0_58:I wl_1_58:I wl_0_59:I wl_1_59:I wl_0_60:I wl_1_60:I wl_0_61:I wl_1_61:I wl_0_62:I wl_1_62:I wl_0_63:I wl_1_63:I wl_0_64:I wl_1_64:I wl_0_65:I wl_1_65:I wl_0_66:I wl_1_66:I wl_0_67:I wl_1_67:I wl_0_68:I wl_1_68:I wl_0_69:I wl_1_69:I wl_0_70:I wl_1_70:I wl_0_71:I wl_1_71:I wl_0_72:I wl_1_72:I wl_0_73:I wl_1_73:I wl_0_74:I wl_1_74:I wl_0_75:I wl_1_75:I wl_0_76:I wl_1_76:I wl_0_77:I wl_1_77:I wl_0_78:I wl_1_78:I wl_0_79:I wl_1_79:I wl_0_80:I wl_1_80:I wl_0_81:I wl_1_81:I wl_0_82:I wl_1_82:I wl_0_83:I wl_1_83:I wl_0_84:I wl_1_84:I wl_0_85:I wl_1_85:I wl_0_86:I wl_1_86:I wl_0_87:I wl_1_87:I wl_0_88:I wl_1_88:I wl_0_89:I wl_1_89:I wl_0_90:I wl_1_90:I wl_0_91:I wl_1_91:I wl_0_92:I wl_1_92:I wl_0_93:I wl_1_93:I wl_0_94:I wl_1_94:I wl_0_95:I wl_1_95:I wl_0_96:I wl_1_96:I wl_0_97:I wl_1_97:I wl_0_98:I wl_1_98:I wl_0_99:I wl_1_99:I wl_0_100:I wl_1_100:I wl_0_101:I wl_1_101:I wl_0_102:I wl_1_102:I wl_0_103:I wl_1_103:I wl_0_104:I wl_1_104:I wl_0_105:I wl_1_105:I wl_0_106:I wl_1_106:I wl_0_107:I wl_1_107:I wl_0_108:I wl_1_108:I wl_0_109:I wl_1_109:I wl_0_110:I wl_1_110:I wl_0_111:I wl_1_111:I wl_0_112:I wl_1_112:I wl_0_113:I wl_1_113:I wl_0_114:I wl_1_114:I wl_0_115:I wl_1_115:I wl_0_116:I wl_1_116:I wl_0_117:I wl_1_117:I wl_0_118:I wl_1_118:I wl_0_119:I wl_1_119:I wl_0_120:I wl_1_120:I wl_0_121:I wl_1_121:I wl_0_122:I wl_1_122:I wl_0_123:I wl_1_123:I wl_0_124:I wl_1_124:I wl_0_125:I wl_1_125:I wl_0_126:I wl_1_126:I wl_0_127:I wl_1_127:I vdd:B gnd:B
* INOUT : bl_0_0 
* INOUT : bl_1_0 
* INOUT : br_0_0 
* INOUT : br_1_0 
* INOUT : bl_0_1 
* INOUT : bl_1_1 
* INOUT : br_0_1 
* INOUT : br_1_1 
* INOUT : bl_0_2 
* INOUT : bl_1_2 
* INOUT : br_0_2 
* INOUT : br_1_2 
* INOUT : bl_0_3 
* INOUT : bl_1_3 
* INOUT : br_0_3 
* INOUT : br_1_3 
* INOUT : bl_0_4 
* INOUT : bl_1_4 
* INOUT : br_0_4 
* INOUT : br_1_4 
* INOUT : bl_0_5 
* INOUT : bl_1_5 
* INOUT : br_0_5 
* INOUT : br_1_5 
* INOUT : bl_0_6 
* INOUT : bl_1_6 
* INOUT : br_0_6 
* INOUT : br_1_6 
* INOUT : bl_0_7 
* INOUT : bl_1_7 
* INOUT : br_0_7 
* INOUT : br_1_7 
* INOUT : bl_0_8 
* INOUT : bl_1_8 
* INOUT : br_0_8 
* INOUT : br_1_8 
* INOUT : bl_0_9 
* INOUT : bl_1_9 
* INOUT : br_0_9 
* INOUT : br_1_9 
* INOUT : bl_0_10 
* INOUT : bl_1_10 
* INOUT : br_0_10 
* INOUT : br_1_10 
* INOUT : bl_0_11 
* INOUT : bl_1_11 
* INOUT : br_0_11 
* INOUT : br_1_11 
* INOUT : bl_0_12 
* INOUT : bl_1_12 
* INOUT : br_0_12 
* INOUT : br_1_12 
* INOUT : bl_0_13 
* INOUT : bl_1_13 
* INOUT : br_0_13 
* INOUT : br_1_13 
* INOUT : bl_0_14 
* INOUT : bl_1_14 
* INOUT : br_0_14 
* INOUT : br_1_14 
* INOUT : bl_0_15 
* INOUT : bl_1_15 
* INOUT : br_0_15 
* INOUT : br_1_15 
* INOUT : bl_0_16 
* INOUT : bl_1_16 
* INOUT : br_0_16 
* INOUT : br_1_16 
* INOUT : bl_0_17 
* INOUT : bl_1_17 
* INOUT : br_0_17 
* INOUT : br_1_17 
* INOUT : bl_0_18 
* INOUT : bl_1_18 
* INOUT : br_0_18 
* INOUT : br_1_18 
* INOUT : bl_0_19 
* INOUT : bl_1_19 
* INOUT : br_0_19 
* INOUT : br_1_19 
* INOUT : bl_0_20 
* INOUT : bl_1_20 
* INOUT : br_0_20 
* INOUT : br_1_20 
* INOUT : bl_0_21 
* INOUT : bl_1_21 
* INOUT : br_0_21 
* INOUT : br_1_21 
* INOUT : bl_0_22 
* INOUT : bl_1_22 
* INOUT : br_0_22 
* INOUT : br_1_22 
* INOUT : bl_0_23 
* INOUT : bl_1_23 
* INOUT : br_0_23 
* INOUT : br_1_23 
* INOUT : bl_0_24 
* INOUT : bl_1_24 
* INOUT : br_0_24 
* INOUT : br_1_24 
* INOUT : bl_0_25 
* INOUT : bl_1_25 
* INOUT : br_0_25 
* INOUT : br_1_25 
* INOUT : bl_0_26 
* INOUT : bl_1_26 
* INOUT : br_0_26 
* INOUT : br_1_26 
* INOUT : bl_0_27 
* INOUT : bl_1_27 
* INOUT : br_0_27 
* INOUT : br_1_27 
* INOUT : bl_0_28 
* INOUT : bl_1_28 
* INOUT : br_0_28 
* INOUT : br_1_28 
* INOUT : bl_0_29 
* INOUT : bl_1_29 
* INOUT : br_0_29 
* INOUT : br_1_29 
* INOUT : bl_0_30 
* INOUT : bl_1_30 
* INOUT : br_0_30 
* INOUT : br_1_30 
* INOUT : bl_0_31 
* INOUT : bl_1_31 
* INOUT : br_0_31 
* INOUT : br_1_31 
* INOUT : bl_0_32 
* INOUT : bl_1_32 
* INOUT : br_0_32 
* INOUT : br_1_32 
* INOUT : bl_0_33 
* INOUT : bl_1_33 
* INOUT : br_0_33 
* INOUT : br_1_33 
* INOUT : bl_0_34 
* INOUT : bl_1_34 
* INOUT : br_0_34 
* INOUT : br_1_34 
* INOUT : bl_0_35 
* INOUT : bl_1_35 
* INOUT : br_0_35 
* INOUT : br_1_35 
* INOUT : bl_0_36 
* INOUT : bl_1_36 
* INOUT : br_0_36 
* INOUT : br_1_36 
* INOUT : bl_0_37 
* INOUT : bl_1_37 
* INOUT : br_0_37 
* INOUT : br_1_37 
* INOUT : bl_0_38 
* INOUT : bl_1_38 
* INOUT : br_0_38 
* INOUT : br_1_38 
* INOUT : bl_0_39 
* INOUT : bl_1_39 
* INOUT : br_0_39 
* INOUT : br_1_39 
* INOUT : bl_0_40 
* INOUT : bl_1_40 
* INOUT : br_0_40 
* INOUT : br_1_40 
* INOUT : bl_0_41 
* INOUT : bl_1_41 
* INOUT : br_0_41 
* INOUT : br_1_41 
* INOUT : bl_0_42 
* INOUT : bl_1_42 
* INOUT : br_0_42 
* INOUT : br_1_42 
* INOUT : bl_0_43 
* INOUT : bl_1_43 
* INOUT : br_0_43 
* INOUT : br_1_43 
* INOUT : bl_0_44 
* INOUT : bl_1_44 
* INOUT : br_0_44 
* INOUT : br_1_44 
* INOUT : bl_0_45 
* INOUT : bl_1_45 
* INOUT : br_0_45 
* INOUT : br_1_45 
* INOUT : bl_0_46 
* INOUT : bl_1_46 
* INOUT : br_0_46 
* INOUT : br_1_46 
* INOUT : bl_0_47 
* INOUT : bl_1_47 
* INOUT : br_0_47 
* INOUT : br_1_47 
* INOUT : bl_0_48 
* INOUT : bl_1_48 
* INOUT : br_0_48 
* INOUT : br_1_48 
* INOUT : bl_0_49 
* INOUT : bl_1_49 
* INOUT : br_0_49 
* INOUT : br_1_49 
* INOUT : bl_0_50 
* INOUT : bl_1_50 
* INOUT : br_0_50 
* INOUT : br_1_50 
* INOUT : bl_0_51 
* INOUT : bl_1_51 
* INOUT : br_0_51 
* INOUT : br_1_51 
* INOUT : bl_0_52 
* INOUT : bl_1_52 
* INOUT : br_0_52 
* INOUT : br_1_52 
* INOUT : bl_0_53 
* INOUT : bl_1_53 
* INOUT : br_0_53 
* INOUT : br_1_53 
* INOUT : bl_0_54 
* INOUT : bl_1_54 
* INOUT : br_0_54 
* INOUT : br_1_54 
* INOUT : bl_0_55 
* INOUT : bl_1_55 
* INOUT : br_0_55 
* INOUT : br_1_55 
* INOUT : bl_0_56 
* INOUT : bl_1_56 
* INOUT : br_0_56 
* INOUT : br_1_56 
* INOUT : bl_0_57 
* INOUT : bl_1_57 
* INOUT : br_0_57 
* INOUT : br_1_57 
* INOUT : bl_0_58 
* INOUT : bl_1_58 
* INOUT : br_0_58 
* INOUT : br_1_58 
* INOUT : bl_0_59 
* INOUT : bl_1_59 
* INOUT : br_0_59 
* INOUT : br_1_59 
* INOUT : bl_0_60 
* INOUT : bl_1_60 
* INOUT : br_0_60 
* INOUT : br_1_60 
* INOUT : bl_0_61 
* INOUT : bl_1_61 
* INOUT : br_0_61 
* INOUT : br_1_61 
* INOUT : bl_0_62 
* INOUT : bl_1_62 
* INOUT : br_0_62 
* INOUT : br_1_62 
* INOUT : bl_0_63 
* INOUT : bl_1_63 
* INOUT : br_0_63 
* INOUT : br_1_63 
* INOUT : bl_0_64 
* INOUT : bl_1_64 
* INOUT : br_0_64 
* INOUT : br_1_64 
* INOUT : bl_0_65 
* INOUT : bl_1_65 
* INOUT : br_0_65 
* INOUT : br_1_65 
* INOUT : bl_0_66 
* INOUT : bl_1_66 
* INOUT : br_0_66 
* INOUT : br_1_66 
* INOUT : bl_0_67 
* INOUT : bl_1_67 
* INOUT : br_0_67 
* INOUT : br_1_67 
* INOUT : bl_0_68 
* INOUT : bl_1_68 
* INOUT : br_0_68 
* INOUT : br_1_68 
* INOUT : bl_0_69 
* INOUT : bl_1_69 
* INOUT : br_0_69 
* INOUT : br_1_69 
* INOUT : bl_0_70 
* INOUT : bl_1_70 
* INOUT : br_0_70 
* INOUT : br_1_70 
* INOUT : bl_0_71 
* INOUT : bl_1_71 
* INOUT : br_0_71 
* INOUT : br_1_71 
* INOUT : bl_0_72 
* INOUT : bl_1_72 
* INOUT : br_0_72 
* INOUT : br_1_72 
* INOUT : bl_0_73 
* INOUT : bl_1_73 
* INOUT : br_0_73 
* INOUT : br_1_73 
* INOUT : bl_0_74 
* INOUT : bl_1_74 
* INOUT : br_0_74 
* INOUT : br_1_74 
* INOUT : bl_0_75 
* INOUT : bl_1_75 
* INOUT : br_0_75 
* INOUT : br_1_75 
* INOUT : bl_0_76 
* INOUT : bl_1_76 
* INOUT : br_0_76 
* INOUT : br_1_76 
* INOUT : bl_0_77 
* INOUT : bl_1_77 
* INOUT : br_0_77 
* INOUT : br_1_77 
* INOUT : bl_0_78 
* INOUT : bl_1_78 
* INOUT : br_0_78 
* INOUT : br_1_78 
* INOUT : bl_0_79 
* INOUT : bl_1_79 
* INOUT : br_0_79 
* INOUT : br_1_79 
* INOUT : bl_0_80 
* INOUT : bl_1_80 
* INOUT : br_0_80 
* INOUT : br_1_80 
* INOUT : bl_0_81 
* INOUT : bl_1_81 
* INOUT : br_0_81 
* INOUT : br_1_81 
* INOUT : bl_0_82 
* INOUT : bl_1_82 
* INOUT : br_0_82 
* INOUT : br_1_82 
* INOUT : bl_0_83 
* INOUT : bl_1_83 
* INOUT : br_0_83 
* INOUT : br_1_83 
* INOUT : bl_0_84 
* INOUT : bl_1_84 
* INOUT : br_0_84 
* INOUT : br_1_84 
* INOUT : bl_0_85 
* INOUT : bl_1_85 
* INOUT : br_0_85 
* INOUT : br_1_85 
* INOUT : bl_0_86 
* INOUT : bl_1_86 
* INOUT : br_0_86 
* INOUT : br_1_86 
* INOUT : bl_0_87 
* INOUT : bl_1_87 
* INOUT : br_0_87 
* INOUT : br_1_87 
* INOUT : bl_0_88 
* INOUT : bl_1_88 
* INOUT : br_0_88 
* INOUT : br_1_88 
* INOUT : bl_0_89 
* INOUT : bl_1_89 
* INOUT : br_0_89 
* INOUT : br_1_89 
* INOUT : bl_0_90 
* INOUT : bl_1_90 
* INOUT : br_0_90 
* INOUT : br_1_90 
* INOUT : bl_0_91 
* INOUT : bl_1_91 
* INOUT : br_0_91 
* INOUT : br_1_91 
* INOUT : bl_0_92 
* INOUT : bl_1_92 
* INOUT : br_0_92 
* INOUT : br_1_92 
* INOUT : bl_0_93 
* INOUT : bl_1_93 
* INOUT : br_0_93 
* INOUT : br_1_93 
* INOUT : bl_0_94 
* INOUT : bl_1_94 
* INOUT : br_0_94 
* INOUT : br_1_94 
* INOUT : bl_0_95 
* INOUT : bl_1_95 
* INOUT : br_0_95 
* INOUT : br_1_95 
* INOUT : bl_0_96 
* INOUT : bl_1_96 
* INOUT : br_0_96 
* INOUT : br_1_96 
* INOUT : bl_0_97 
* INOUT : bl_1_97 
* INOUT : br_0_97 
* INOUT : br_1_97 
* INOUT : bl_0_98 
* INOUT : bl_1_98 
* INOUT : br_0_98 
* INOUT : br_1_98 
* INOUT : bl_0_99 
* INOUT : bl_1_99 
* INOUT : br_0_99 
* INOUT : br_1_99 
* INOUT : bl_0_100 
* INOUT : bl_1_100 
* INOUT : br_0_100 
* INOUT : br_1_100 
* INOUT : bl_0_101 
* INOUT : bl_1_101 
* INOUT : br_0_101 
* INOUT : br_1_101 
* INOUT : bl_0_102 
* INOUT : bl_1_102 
* INOUT : br_0_102 
* INOUT : br_1_102 
* INOUT : bl_0_103 
* INOUT : bl_1_103 
* INOUT : br_0_103 
* INOUT : br_1_103 
* INOUT : bl_0_104 
* INOUT : bl_1_104 
* INOUT : br_0_104 
* INOUT : br_1_104 
* INOUT : bl_0_105 
* INOUT : bl_1_105 
* INOUT : br_0_105 
* INOUT : br_1_105 
* INOUT : bl_0_106 
* INOUT : bl_1_106 
* INOUT : br_0_106 
* INOUT : br_1_106 
* INOUT : bl_0_107 
* INOUT : bl_1_107 
* INOUT : br_0_107 
* INOUT : br_1_107 
* INOUT : bl_0_108 
* INOUT : bl_1_108 
* INOUT : br_0_108 
* INOUT : br_1_108 
* INOUT : bl_0_109 
* INOUT : bl_1_109 
* INOUT : br_0_109 
* INOUT : br_1_109 
* INOUT : bl_0_110 
* INOUT : bl_1_110 
* INOUT : br_0_110 
* INOUT : br_1_110 
* INOUT : bl_0_111 
* INOUT : bl_1_111 
* INOUT : br_0_111 
* INOUT : br_1_111 
* INOUT : bl_0_112 
* INOUT : bl_1_112 
* INOUT : br_0_112 
* INOUT : br_1_112 
* INOUT : bl_0_113 
* INOUT : bl_1_113 
* INOUT : br_0_113 
* INOUT : br_1_113 
* INOUT : bl_0_114 
* INOUT : bl_1_114 
* INOUT : br_0_114 
* INOUT : br_1_114 
* INOUT : bl_0_115 
* INOUT : bl_1_115 
* INOUT : br_0_115 
* INOUT : br_1_115 
* INOUT : bl_0_116 
* INOUT : bl_1_116 
* INOUT : br_0_116 
* INOUT : br_1_116 
* INOUT : bl_0_117 
* INOUT : bl_1_117 
* INOUT : br_0_117 
* INOUT : br_1_117 
* INOUT : bl_0_118 
* INOUT : bl_1_118 
* INOUT : br_0_118 
* INOUT : br_1_118 
* INOUT : bl_0_119 
* INOUT : bl_1_119 
* INOUT : br_0_119 
* INOUT : br_1_119 
* INOUT : bl_0_120 
* INOUT : bl_1_120 
* INOUT : br_0_120 
* INOUT : br_1_120 
* INOUT : bl_0_121 
* INOUT : bl_1_121 
* INOUT : br_0_121 
* INOUT : br_1_121 
* INOUT : bl_0_122 
* INOUT : bl_1_122 
* INOUT : br_0_122 
* INOUT : br_1_122 
* INOUT : bl_0_123 
* INOUT : bl_1_123 
* INOUT : br_0_123 
* INOUT : br_1_123 
* INOUT : bl_0_124 
* INOUT : bl_1_124 
* INOUT : br_0_124 
* INOUT : br_1_124 
* INOUT : bl_0_125 
* INOUT : bl_1_125 
* INOUT : br_0_125 
* INOUT : br_1_125 
* INOUT : bl_0_126 
* INOUT : bl_1_126 
* INOUT : br_0_126 
* INOUT : br_1_126 
* INOUT : bl_0_127 
* INOUT : bl_1_127 
* INOUT : br_0_127 
* INOUT : br_1_127 
* INPUT : wl_0_0 
* INPUT : wl_1_0 
* INPUT : wl_0_1 
* INPUT : wl_1_1 
* INPUT : wl_0_2 
* INPUT : wl_1_2 
* INPUT : wl_0_3 
* INPUT : wl_1_3 
* INPUT : wl_0_4 
* INPUT : wl_1_4 
* INPUT : wl_0_5 
* INPUT : wl_1_5 
* INPUT : wl_0_6 
* INPUT : wl_1_6 
* INPUT : wl_0_7 
* INPUT : wl_1_7 
* INPUT : wl_0_8 
* INPUT : wl_1_8 
* INPUT : wl_0_9 
* INPUT : wl_1_9 
* INPUT : wl_0_10 
* INPUT : wl_1_10 
* INPUT : wl_0_11 
* INPUT : wl_1_11 
* INPUT : wl_0_12 
* INPUT : wl_1_12 
* INPUT : wl_0_13 
* INPUT : wl_1_13 
* INPUT : wl_0_14 
* INPUT : wl_1_14 
* INPUT : wl_0_15 
* INPUT : wl_1_15 
* INPUT : wl_0_16 
* INPUT : wl_1_16 
* INPUT : wl_0_17 
* INPUT : wl_1_17 
* INPUT : wl_0_18 
* INPUT : wl_1_18 
* INPUT : wl_0_19 
* INPUT : wl_1_19 
* INPUT : wl_0_20 
* INPUT : wl_1_20 
* INPUT : wl_0_21 
* INPUT : wl_1_21 
* INPUT : wl_0_22 
* INPUT : wl_1_22 
* INPUT : wl_0_23 
* INPUT : wl_1_23 
* INPUT : wl_0_24 
* INPUT : wl_1_24 
* INPUT : wl_0_25 
* INPUT : wl_1_25 
* INPUT : wl_0_26 
* INPUT : wl_1_26 
* INPUT : wl_0_27 
* INPUT : wl_1_27 
* INPUT : wl_0_28 
* INPUT : wl_1_28 
* INPUT : wl_0_29 
* INPUT : wl_1_29 
* INPUT : wl_0_30 
* INPUT : wl_1_30 
* INPUT : wl_0_31 
* INPUT : wl_1_31 
* INPUT : wl_0_32 
* INPUT : wl_1_32 
* INPUT : wl_0_33 
* INPUT : wl_1_33 
* INPUT : wl_0_34 
* INPUT : wl_1_34 
* INPUT : wl_0_35 
* INPUT : wl_1_35 
* INPUT : wl_0_36 
* INPUT : wl_1_36 
* INPUT : wl_0_37 
* INPUT : wl_1_37 
* INPUT : wl_0_38 
* INPUT : wl_1_38 
* INPUT : wl_0_39 
* INPUT : wl_1_39 
* INPUT : wl_0_40 
* INPUT : wl_1_40 
* INPUT : wl_0_41 
* INPUT : wl_1_41 
* INPUT : wl_0_42 
* INPUT : wl_1_42 
* INPUT : wl_0_43 
* INPUT : wl_1_43 
* INPUT : wl_0_44 
* INPUT : wl_1_44 
* INPUT : wl_0_45 
* INPUT : wl_1_45 
* INPUT : wl_0_46 
* INPUT : wl_1_46 
* INPUT : wl_0_47 
* INPUT : wl_1_47 
* INPUT : wl_0_48 
* INPUT : wl_1_48 
* INPUT : wl_0_49 
* INPUT : wl_1_49 
* INPUT : wl_0_50 
* INPUT : wl_1_50 
* INPUT : wl_0_51 
* INPUT : wl_1_51 
* INPUT : wl_0_52 
* INPUT : wl_1_52 
* INPUT : wl_0_53 
* INPUT : wl_1_53 
* INPUT : wl_0_54 
* INPUT : wl_1_54 
* INPUT : wl_0_55 
* INPUT : wl_1_55 
* INPUT : wl_0_56 
* INPUT : wl_1_56 
* INPUT : wl_0_57 
* INPUT : wl_1_57 
* INPUT : wl_0_58 
* INPUT : wl_1_58 
* INPUT : wl_0_59 
* INPUT : wl_1_59 
* INPUT : wl_0_60 
* INPUT : wl_1_60 
* INPUT : wl_0_61 
* INPUT : wl_1_61 
* INPUT : wl_0_62 
* INPUT : wl_1_62 
* INPUT : wl_0_63 
* INPUT : wl_1_63 
* INPUT : wl_0_64 
* INPUT : wl_1_64 
* INPUT : wl_0_65 
* INPUT : wl_1_65 
* INPUT : wl_0_66 
* INPUT : wl_1_66 
* INPUT : wl_0_67 
* INPUT : wl_1_67 
* INPUT : wl_0_68 
* INPUT : wl_1_68 
* INPUT : wl_0_69 
* INPUT : wl_1_69 
* INPUT : wl_0_70 
* INPUT : wl_1_70 
* INPUT : wl_0_71 
* INPUT : wl_1_71 
* INPUT : wl_0_72 
* INPUT : wl_1_72 
* INPUT : wl_0_73 
* INPUT : wl_1_73 
* INPUT : wl_0_74 
* INPUT : wl_1_74 
* INPUT : wl_0_75 
* INPUT : wl_1_75 
* INPUT : wl_0_76 
* INPUT : wl_1_76 
* INPUT : wl_0_77 
* INPUT : wl_1_77 
* INPUT : wl_0_78 
* INPUT : wl_1_78 
* INPUT : wl_0_79 
* INPUT : wl_1_79 
* INPUT : wl_0_80 
* INPUT : wl_1_80 
* INPUT : wl_0_81 
* INPUT : wl_1_81 
* INPUT : wl_0_82 
* INPUT : wl_1_82 
* INPUT : wl_0_83 
* INPUT : wl_1_83 
* INPUT : wl_0_84 
* INPUT : wl_1_84 
* INPUT : wl_0_85 
* INPUT : wl_1_85 
* INPUT : wl_0_86 
* INPUT : wl_1_86 
* INPUT : wl_0_87 
* INPUT : wl_1_87 
* INPUT : wl_0_88 
* INPUT : wl_1_88 
* INPUT : wl_0_89 
* INPUT : wl_1_89 
* INPUT : wl_0_90 
* INPUT : wl_1_90 
* INPUT : wl_0_91 
* INPUT : wl_1_91 
* INPUT : wl_0_92 
* INPUT : wl_1_92 
* INPUT : wl_0_93 
* INPUT : wl_1_93 
* INPUT : wl_0_94 
* INPUT : wl_1_94 
* INPUT : wl_0_95 
* INPUT : wl_1_95 
* INPUT : wl_0_96 
* INPUT : wl_1_96 
* INPUT : wl_0_97 
* INPUT : wl_1_97 
* INPUT : wl_0_98 
* INPUT : wl_1_98 
* INPUT : wl_0_99 
* INPUT : wl_1_99 
* INPUT : wl_0_100 
* INPUT : wl_1_100 
* INPUT : wl_0_101 
* INPUT : wl_1_101 
* INPUT : wl_0_102 
* INPUT : wl_1_102 
* INPUT : wl_0_103 
* INPUT : wl_1_103 